#!/system/bin/sh

# MagiskHide Props Config
# Copyright (c) 2018-2019 Didgeridoohan @ XDA Developers
# Licence: MIT

# ====================================================
# ==================== Root check ====================
# ====================================================

# Check for access to the Magisk internals. No access == no root
ls /data/adb>/dev/null 2>&1
if [ "$?" != 0 ]; then
	su -c props "$@" # Rerun script with root access
	exit
fi

# Startup message
echo ""
echo "Loading... Please wait."
echo ""

# =====================================================
# ================ Paths and variables ================
# =====================================================

ADBPATHPH=ADB_PLACEHOLDER
MODPATH=$ADBPATH/modules/MagiskHidePropsConf
LATEFILEPH=LATE_PLACEHOLDER
BOOTSTAGE="props"

# Development testing set to false
DEVTESTING=false
case "$1" in
	*t*) # Development testing
		DEVTESTING=true
	;;
esac

# Colours
if [ -f "$LATEFILE" ] && [ "$(grep "OPTIONCOLOUR=" $LATEFILE | sed 's|.*=||' | sed 's|\"||g')" == 0 ] || [ "$ANDROID_SOCKET_adbd" ]; then
	COLOURCHK="nc"
else
	COLOURCHK="$1"
fi
case "$COLOURCHK" in
	*nc*) # Don't use colours
		G=''
		R=''
		Y=''
		B=''
		V=''
		Bl=''
		C=''
		W=''
		N=''
	;;
	*)	# Use colours
		G='\e[01;32m'    # GREEN
		R='\e[01;31m'    # RED
		Y='\e[01;33m'    # YELLOW
		B='\e[01;34m'    # BLUE
		V='\e[01;35m'    # VIOLET
		Bl='\e[01;30m'   # BLACK
		C='\e[01;36m'    # CYAN
		W='\e[01;37m'    # WHITE
		N='\e[00;37;40m' # NEUTRAL
	;;
esac

# ===================================================
# ==================== Functions ====================
# ===================================================

# Load functions
. $MODPATH/util_functions.sh

log_handler "Running props script."

if [ -z "$BBPATH" ]; then
	menu_header "${C}No Busybox found${N}"
	echo ""
	echo "You don't seem to have Busybox installed"
	echo "to your system. Please install it, since"
	echo "it is required to ensure proper"
	echo "functionality of the scripts."
	echo ""
	echo "I recommend osm0sis' Busybox, installable"
	echo "as a Magisk module from the Magisk repo."
	echo ""
	echo "If you do have Busybox installed, please"
	echo "check the module documentation on how to"
	echo "ask for support and provide logs."
	echo ""
	log_handler "No Busybox found."
	log_handler "Exiting... Bye bye.\n\n===================="	
	exit 0
fi

blank_input() {
	# Find menu level
	case $1 in
		1)	INPUT=""
		;;
		2)	INPUT2=""
		;;
		3)	INPUT3=""
		;;
		4)	INPUT4=""
		;;
		5)	INPUT5=""
		;;
		6)	INPUT6=""
		;;
	esac

	echo ""
	echo "${R}Don't enter an empty value${N}."
	echo "Try again."
	sleep 2
}

active_option() {
	echo ""
	echo "${R}That's already the active option.${N}"
	sleep 2
}

invalid_input() {
	INPMSG=""

	# Set the message text
	case $1 in
		1) INPMSG="Only pick from the options above, one at a time."
		;;
		2) INPMSG="Only enter '${G}y${N}' or '${G}n${N}'."
		;;
		3) INPMSG="Only enter '${G}y${N}', '${G}n${N}' or '${G}e${N}'."
		;;
		4) INPMSG="Only enter '${G}y${N}', '${G}n${N}', '${G}r${N}' or '${G}e${N}'."
		;;
		5) INPMSG="Only enter '${G}d${N}', '${G}y${N}', '${G}n${N}' or '${G}e${N}'."
		;;
		6) INPMSG="Enter a fingerprint or pick from the options, one at a time."
		;;
	esac

	# Find menu level
	case $2 in
		1) INPUT=""
		;;
		2) INPUT2=""
		;;
		3) INPUT3=""
		;;
		4) INPUT4=""
		;;
		5) INPUT5=""
		;;
		6) INPUT6=""
		;;
		7) INPUT7=""
		;;
	esac

	echo ""
	echo "${R}Invalid input${N}. $INPMSG"
	sleep 2
}

exit_fn() {
	menu_header "${C}Bye bye.${N}"
	echo ""
	log_handler "Exiting... Bye bye.\n\n===================="	
	exit 0
}

# ======================== Device's fingerprint ========================
# Second menu level - fingerprint
menu_change_fingerprint() {
	rm -f $CSTMFILE
	INPUT2=""
	while true
	do
		if [ -z "$INPUT2" ]; then
			menu_header "${C}$1${N}"
			echo ""
			if [ "$FINGERPRINTENB" == 0 ]; then
				echo "Fingerprint modification currently disabled"
				echo "because of a conflicting module."
				echo ""
				echo "Nothing to do... Returning to main menu."
				sleep 3
				INPUT=""
				break
			else
				if [ "$4" ] && [ "$PRINTEDIT" == 1 ]; then
					PRINTMODULETXT=" (by this module)"
				else
					PRINTMODULETXT=""
				fi
				if [ "$PRINTSTAGE" == 0 ]; then
					PRINTSTAGETXT="default"
				elif [ "$PRINTSTAGE" == 1 ]; then
					PRINTSTAGETXT="post-fs-data"
				elif [ "$PRINTSTAGE" == 2 ]; then
					PRINTSTAGETXT="late_start service"
				fi
				if [ "$PATCHSTAGE" == 0 ]; then
					PATCHSTAGETXT="default"
				elif [ "$PATCHSTAGE" == 1 ]; then
					PATCHSTAGETXT="post-fs-data"
				elif [ "$PATCHSTAGE" == 2 ]; then
					PATCHSTAGETXT="late_start service"
				fi
				if [ "$2" ]; then
					echo "Currently set to${PRINTMODULETXT}:"
					echo ""
					if [ "$PRINTMODULETXT" ]; then
						get_device_used "$2"
					fi
					echo ${C}$2${N}					
					if [ "$2" != "$3" ]; then
						echo ""
						echo "The original value is:"
						echo ${C}$3${N}
					fi
				else
					echo "ro.build.fingerprint doesn't seem to"
					echo "currently exist on your system."
				fi
				echo ""
				echo "Enter the new fingerprint or"
				echo "pick from the options below."
				echo ""
				echo "${G}f${N} - Pick a certified fingerprint"
				if [ "$PRINTMODULETXT" ]; then
					echo "${G}r${N} - Reset fingerprint"
				fi
				if [ "$ORIGVENDPRINT" ]; then
					if [ "$PRINTVEND" == 1 ]; then
						VENDTXT="${G} (active)${N}"
					else
						VENDTXT=""
					fi
					echo "${G}v${N} - Use vendor fingerprint (for Treble GSI ROMs)${VENDTXT}"
				fi
				if [ "$OPTIONWEB" == 0 ]; then
					echo "${G}u${N} - Update fingerprints list (v$(get_file_value $PRINTSLOC "PRINTSV="))"
				fi
				echo "${G}s${N} - Boot stages (${C}${PRINTSTAGETXT}/${PATCHSTAGETXT}${N})."
				echo "${G}b${N} - Go back."
				echo "${G}e${N} - Exit"
				echo ""
				if [ "$PRINTCHK" == 1 ]; then
					echo "${R}The device fingerprint has been updated.${N}"
					echo "${R}Please reboot to apply.${N}"
					echo ""
				fi
				echo "See the module readme or the"
				echo "support thread @ XDA for details."
				echo ""
				echo -n "Enter your desired option: "
				read -r INPUT2
			fi
		fi
		case "$INPUT2" in
			f|F)	menu_pick_print "$1"
			;;
			r|R)
				if [ "$PRINTMODULETXT" ]; then
					menu_reset_print "Reset fingerprint"
				else
					menu_new_print "$1" "$INPUT2" 2
				fi
			;;
			v|V)
				if [ "$ORIGVENDPRINT" ]; then
					menu_vendor_print "$1"
				else
					invalid_input 6 2
				fi
			;;
			u|U)
				if [ "$OPTIONWEB" == 0 ]; then
					menu_update_print "Update fingerprints list"
				else
					menu_new_print "$1" "$INPUT2" 2
				fi
			;;
			s|S) menu_bootstage_print "$1"
			;;
			b|B)
				INPUT=""
				break
			;;
			e|E) exit_fn
			;;
			""|[[:blank:]]*)	blank_input 2
			;;
			*)
				if [ "${#INPUT2}" -lt 10 ]; then
					invalid_input 6 2
				else
					menu_new_print "$1" "$INPUT2" 2
				fi
			;;
		esac
	done
}

# Third menu level - pick fingerprint
menu_pick_print() {
	INPUT3=""
	OEMLIST=""
	HEADERPRINTV="${C}$1${N}\n List version - v$(get_file_value $PRINTSLOC "PRINTSV=")\n Select an option below."
	while true
	do
		if [ -z "$INPUT3" ]; then
			# Load the list of fingerprint files
			log_handler "Loading fingerprints list v$(get_file_value $PRINTSLOC "PRINTSV=")."
			OEMLIST="$(ls $PRINTFILES | sed 's|\.sh||g')"
			if [ "$OEMLIST" ]; then
				# Check for custom fingerprints list
				if [ -s "$CSTMPRINTS" ] && [ ! -f "$CSTMFILE" ]; then
					log_handler "Found custom fingerprints list."
					format_file $CSTMPRINTS
					log_handler "Creating custom prints file."
					cat $CSTMPRINTS >> $LOGFILE 2>&1 && echo "" >> $LOGFILE 2>&1
					echo -e "PRINTSLIST=\"" >> $CSTMFILE
					cat $CSTMPRINTS >> $CSTMFILE
					echo -e "\"" >> $CSTMFILE
					# Reload the list with new files
					OEMLIST="$(ls $PRINTFILES | sed 's|\.sh||g')"
				fi
				ITEMCOUNT=1
				menu_header "$HEADERPRINTV"
				echo ""
				for ITEM in $OEMLIST; do
					echo "${G}$ITEMCOUNT${N} - $ITEM"
					ITEMCOUNT=$(($ITEMCOUNT+1))
				done
				echo "${G}b${N} - Go back"
				echo "${G}e${N} - Exit"
				echo ""
				echo -n "Enter your desired option: "
				read -r INPUT3
			else
				log_handler "No fingerprints list."
				collect_logs "issue"
				menu_header "${C}$1${N}\n Something's wrong!"
				echo "Hm... That's not right."
				echo ""
				echo "There is currently no fingerprints list"
				echo "available. Try updating it manually."
				echo ""
				echo "If the issue persists, report it in the"
				echo "support thread @ XDA, ${R}with logs!${C}"
				echo ""
				echo "Logs have automatically been saved to"
				echo "your internal storage ${R}(propslogs.tar.gz)${C}."
				echo ""
				echo -n "Press enter to continue..."
				read -r INPUTTMP
				INPUT2=""
				break
			fi
		fi
		if [ "$INPUT3" -ge 1 ] && [ "$INPUT3" -lt "$ITEMCOUNT" ]; then
			ITEMCOUNT=1
			for ITEM in $OEMLIST; do
				if [ "$ITEMCOUNT" == "$INPUT3" ]; then
					menu_pick_print_sub "$HEADERPRINTV" "$ITEM"
					break
				fi
				ITEMCOUNT=$(($ITEMCOUNT+1))
			done
		elif [ "$INPUT3" == "b" ] || [ "$INPUT3" == "B" ]; then
			INPUT2=""
			break
		elif [ "$INPUT3" == "e" ] || [ "$INPUT3" == "E" ]; then
			exit_fn
		else
			invalid_input 1 3
		fi
	done
}

# Fourth menu level - pick fingerprint
menu_pick_print_sub() {
	# Loading fingerprints
	TMPFILE=$PRINTFILES/$2.sh
	if [ -f "$TMPFILE" ]; then
		. $TMPFILE
		INPUT4=""
	else
		menu_header "$1"
		log_handler "Can't find '$TMPFILE'."
		collect_logs "issue"
		echo "Oh no! Something went wrong..."
		echo ""
		echo "Can't find the fingerprints file."
		echo "Try updating it manually."
		echo ""
		echo "If the issue persists, report it in the"
		echo "support thread @ XDA, ${R}with logs!${C}"
		echo ""
		echo "Logs have automatically been saved to"
		echo "your internal storage ${R}(propslogs.tar.gz)${C}."
		echo ""
		echo -n "Press enter to continue..."
		read -r INPUTTMP
		INPUT4="b"
	fi
	while true
	do
		if [ -z "$INPUT4" ]; then
			ITEMCOUNT=1
			menu_header "$1"
			echo ""
			SAVEIFS=$IFS
			IFS=$(echo -en "\n\b")
			for ITEM in $PRINTSLIST; do
				if [ "$(get_first $ITEM)" == "$2" ] || [ "$2" == "Custom" ]; then
					echo "${G}$ITEMCOUNT${N} - $(get_eq_left "$ITEM")"
					ITEMCOUNT=$(($ITEMCOUNT+1))
				fi
			done
			IFS=$SAVEIFS
			echo "${G}b${N} - Go back"
			echo "${G}e${N} - Exit"
			echo ""
			echo -n "Enter your desired option: "
			read -r INPUT4
		fi
		if [ "$INPUT4" -ge 1 ] && [ "$INPUT4" -lt "$ITEMCOUNT" ]; then
			ITEMCOUNT=1
			SAVEIFS=$IFS
			IFS=$(echo -en "\n\b")
			for ITEM in $PRINTSLIST; do
				if [ "$ITEMCOUNT" == "$INPUT4" ]; then
					case "$ITEM" in
						*\;*)
							IFS=$SAVEIFS
							menu_pick_print_version "$1" "$(get_eq_left "$ITEM")" "$(get_eq_right "$ITEM")"
							INPUT2=""
							INPUT3=""
							break
						;;
						*)
							IFS=$SAVEIFS
							menu_new_print "$1" "$(get_eq_right "$ITEM")"
							INPUT2=""
							INPUT3=""
							break
						;;
					esac
				fi
				ITEMCOUNT=$(($ITEMCOUNT+1))
			done
			IFS=$SAVEIFS
		elif [ "$INPUT4" == "b" ] || [ "$INPUT4" == "B" ]; then
			INPUT3=""
			break
		elif [ "$INPUT4" == "e" ] || [ "$INPUT4" == "E" ]; then
			exit_fn
		else
			invalid_input 1 4
		fi
	done
}

# Fifth menu level - pick Android version
menu_pick_print_version() {
	INPUT5=""
	ANDROIDV="$(get_print_versions "$2")"
	while true
	do
		if [ -z "$INPUT5" ]; then
			ITEMCOUNT=1
			menu_header "$1"
			echo ""
			echo "There are several fingerprints available"
			echo "for this device, for different versions"
			echo "of Android. Pick one."
			echo ""
			echo "${C}$(echo "$2" | sed 's| (.*||')${N}"
			echo ""
			for ITEM in $ANDROIDV; do
				echo "${G}$ITEMCOUNT${N} - Android version ${C}$ITEM${N}"
				ITEMCOUNT=$(($ITEMCOUNT+1))
			done
			echo "${G}b${N} - Go back"
			echo "${G}e${N} - Exit"
			echo ""
			echo -n "Enter your desired option: "
			read -r INPUT5
		fi
		if [ "$INPUT5" -ge 1 ] && [ "$INPUT5" -lt "$ITEMCOUNT" ]; then
			ITEMCOUNT=1
			for ITEM in $ANDROIDV; do
				if [ "$ITEMCOUNT" == "$INPUT5" ]; then
					TMPPRINT="$(echo $3 | cut -f $ITEMCOUNT -d ';')"
					menu_new_print "$1" "$TMPPRINT"
					INPUT2=""
					INPUT3=""
					INPUT4=""
					break
				fi
				ITEMCOUNT=$(($ITEMCOUNT+1))
			done
		elif [ "$INPUT5" == "b" ] || [ "$INPUT5" == "B" ]; then
			INPUT4=""
			break
		elif [ "$INPUT5" == "e" ] || [ "$INPUT5" == "E" ]; then
			exit_fn
		else
			invalid_input 1 5
		fi
	done
}

# Sixth menu level - confirm fingerprint
menu_new_print() {
	INPUT6=""
	PRINTDISP="$(get_print_display $2)"
	while true
	do
		if [ -z "$INPUT6" ]; then
			menu_header "${C}$1${N}"
			echo ""
			echo "You are about to use the following as your device's fingerprint."
			echo ""
			get_device_used "$2"
			echo "${V}$PRINTDISP${N}"
			echo ""
			echo "Make sure that it is correct before continuing."
			echo "Do you want to continue?"
			echo ""
			echo -n "Enter ${G}y${N}(es), ${G}n${N}(o) or ${G}e${N}(xit): "
			read -r INPUT6
		fi
		case "$INPUT6" in
			y|Y)
				change_print "$1" "$2"
				INPUT2=""
				INPUT3=""
				INPUT4=""
				INPUT5=""
				break
			;;
			n|N)
				INPUT2=""
				INPUT3=""
				INPUT4=""
				INPUT5=""
				break
			;;
			e|E) exit_fn
			;;
			*)	invalid_input 3 6
			;;
		esac
	done
}

# Third menu level - Reset fingerprint
menu_reset_print() {
	INPUT3=""
	while true
	do
		if [ -z "$INPUT3" ]; then
			menu_header "${C}$1${N}"
			echo ""
			echo "This will reset the device"
			echo "fingerprint to the default value."
			echo ""
			echo "Do you want to continue?"
			echo ""
			echo -n "Enter ${G}y${N}(es), ${G}n${N}(o) or ${G}e${N}(xit): "
			read -r INPUT3
		fi
		case "$INPUT3" in
			y|Y)	
				reset_print "$1"
				INPUT2=""
				break
			;;
			n|N)
				INPUT2=""
				break
			;;
			e|E) exit_fn
			;;
			*)	invalid_input 3 3
			;;
		esac
	done
}

# Third menu level - Vendor fingerprint
menu_vendor_print() {
	INPUT3=""
	while true
	do
		if [ "$PRINTVEND" == 0 ]; then
			STATETXT="${G}enable${N}"
			CURRTXT="${R}disabled${N}"
			TMPVAL=1
		else
			STATETXT="${R}disable${N}"
			CURRTXT="${G}enabled${N}"
			TMPVAL=0
		fi
		if [ -z "$INPUT3" ]; then
			menu_header "${C}$1${N}"
			echo ""
			echo "This will $STATETXT using the vendor"
			echo "fingerprint for Treble GSI ROMs."
			echo ""
			echo "The option is currently $CURRTXT."
			echo ""
			echo "Do you want to continue?"
			echo ""
			echo "See the module readme or the"
			echo "support thread @ XDA for details."
			echo ""
			echo -n "Enter ${G}y${N}(es), ${G}n${N}(o) or ${G}e${N}(xit): "
			read -r INPUT3
		fi
		case "$INPUT3" in
			y|Y)
				change_print_vendor "$1" "$TMPVAL"
				INPUT2=""
				break
			;;
			n|N)
				INPUT2=""
				break
			;;
			e|E) exit_fn
			;;
			*)	invalid_input 3 3
			;;
		esac
	done
}

# Third menu level - Update fingerprints list
menu_update_print() {
	INPUT3=""
	while true
	do
		if [ -z "$INPUT3" ]; then
			menu_header "${C}$1${N}\n List version - v$(get_file_value $PRINTSLOC "PRINTSV=")"
			echo ""
			echo "Do you want to check online if there"
			echo "is an update to the fingerprints list?"
			echo ""
			echo -n "Enter ${G}y${N}(es), ${G}n${N}(o) or ${G}e${N}(xit): "
			read -r INPUT3
		fi
		case "$INPUT3" in
			y|Y)	
				download_prints "manual"
				INPUT2=""
				break
			;;
			n|N)
				INPUT2=""
				break
			;;
			e|E) exit_fn
			;;
			*)	invalid_input 3 3
			;;
		esac
	done
}

# Third menu level - Boot stage
menu_bootstage_print() {
	INPUT3=""
	while true
	do
		if [ -z "$INPUT3" ]; then
			if [ "$PRINTSTAGE" == 0 ]; then
				PRINTSTAGETXT=" ${C}(default)${N}"
			elif [ "$PRINTSTAGE" == 1 ]; then
				PRINTSTAGETXT=" ${C}(post-fs-data)${N}"
			elif [ "$PRINTSTAGE" == 2 ]; then
				PRINTSTAGETXT=" ${C}(late_start service)${N}"
			fi
			if [ "$PATCHSTAGE" == 0 ]; then
				PATCHSTAGETXT=" ${C}(default)${N}"
			elif [ "$PATCHSTAGE" == 1 ]; then
				PATCHSTAGETXT=" ${C}(post-fs-data)${N}"
			elif [ "$PATCHSTAGE" == 2 ]; then
				PATCHSTAGETXT=" ${C}(late_start service)${N}"
			fi
			menu_header "${C}$1${N}"
			echo ""
			echo "Change boot stage for the device fingerprint"
			echo "or security patch date props."
			echo ""
			echo "Pick an option below."
			echo ""
			echo "${G}1${N} - Device fingerprint$PRINTSTAGETXT."
			echo "${G}2${N} - Security patch date$PATCHSTAGETXT."
			echo "${G}b${N} - Go back"
			echo "${G}e${N} - Exit"
			echo ""
			echo -n "Enter your desired option: "
			read -r INPUT3
		fi
		case "$INPUT3" in
			1)
				menu_bootstage_print_set "$1" "print"
				INPUT2=""
				break
			;;
			2)
				menu_bootstage_print_set "$1" "patch"
				INPUT2=""
				break
			;;
			b|B)
				INPUT2=""
				break
			;;
			e|E) exit_fn
			;;
			*)	invalid_input 1 3
			;;
		esac
	done
}

# Fourth menu level - Set boot stage
menu_bootstage_print_set() {
	INPUT4=""
	while true
	do
		if [ -z "$INPUT4" ]; then
			if [ "$2" == "print" ]; then
				PROPTXT="fingerprint"
				TMPSTAGE=$PRINTSTAGE
				CHNGSTAGE="PRINTSTAGE"
			elif [ "$2" == "patch" ]; then
				PROPTXT="security patch date"
				TMPSTAGE=$PATCHSTAGE
				CHNGSTAGE="PATCHSTAGE"
			fi
			if [ "$TMPSTAGE" == 0 ]; then
				CURRTXT="default"
				TMPTXT="${C}post-fs-data${N} or ${C}late_start sevice${N}"
				CHOICETXT="${G}p${N}(ost), ${G}l${N}(ate)"
			elif [ "$TMPSTAGE" == 1 ]; then
				CURRTXT="post-fs-data"
				TMPTXT="${C}default${N} or ${C}late_start service${N}"
				CHOICETXT="${G}d${N}(efault), ${G}l${N}(ate)"
			elif [ "$TMPSTAGE" == 2 ]; then
				CURRTXT="late_start service"
				TMPTXT="${C}default${N} or ${C}post-fs-data${N}"
				CHOICETXT="${G}d${N}(efault), ${G}p${N}(post)"
			fi
			menu_header "${C}$1${N}"
			echo ""
			echo "Current boot stage for $PROPTXT is"
			echo "${G}$CURRTXT${N}."
			echo ""
			echo "Do you want to change it to"
			echo "$TMPTXT?"
			echo ""
			echo -n "Enter $CHOICETXT, ${G}b${N}(ack) or ${G}e${N}(xit): "
			read -r INPUT4
		fi
		case "$INPUT4" in
			d|D)
				if [ "$TMPSTAGE" != 0 ]; then
					OPTNEW=0
					log_handler "Boot stage for $PROPTXT changed to default."
					replace_fn $CHNGSTAGE $TMPSTAGE $OPTNEW $LATEFILE
					# Load module values
					. $LATEFILE
					INPUT3=""
					after_change "$1"
					break
				else
					invalid_input 1 4
				fi
			;;
			p|P)
				if [ "$TMPSTAGE" != 1 ]; then
					OPTNEW=1
					log_handler "Boot stage for $PROPTXT changed to post-fs-data."
					replace_fn $CHNGSTAGE $TMPSTAGE $OPTNEW $LATEFILE
					# Load module values
					. $LATEFILE
					INPUT3=""
					after_change "$1"
					break
				else
					invalid_input 1 4
				fi
			;;
			l|L)
				if [ "$TMPSTAGE" != 2 ]; then
					OPTNEW=2
					log_handler "Boot stage for $PROPTXT changed to late_start service."
					replace_fn $CHNGSTAGE $TMPSTAGE $OPTNEW $LATEFILE
					# Load module values
					. $LATEFILE
					INPUT3=""
					after_change "$1"
					break
				else
					invalid_input 1 4
				fi
			;;
			b|B)
				INPUT3=""
				break
			;;
			e|E) exit_fn
			;;
			*)	invalid_input 1 4
			;;
		esac
	done
}

# ======================== Device simulation ========================
# Second menu level - Device simulation
menu_dev_sim() {
	INPUT2=""
	while true
	do
		ENABLE="${G} (enabled)${N}"
		DISABLE="${R} (disabled)${N}"
		DEVSIMTXT=""
		DESCRIPTIONTXT=""
		DISPTXT=""
		SDKTXT=""
		if [ "$DEVSIM" == 1 ]; then
			DEVSIMTXT=$ENABLE
		else
			DEVSIMTXT=$DISABLE
		fi
		for ITEM in $PRINTPARTS; do
			TMPPROP=$(get_prop_type $ITEM | tr '[:lower:]' '[:upper:]')
			TMPVAR=$(echo "${TMPPROP}TXT")
			if [ "$(get_file_value $LATEFILE "${TMPPROP}SET=")" == 1 ]; then
				eval "${TMPPROP}TXT='$ENABLE'"
			elif [ "$(get_file_value $LATEFILE "${TMPPROP}SET=")" == 0 ]; then
				eval "${TMPPROP}TXT='$DISABLE'"
			else
				eval "${TMPPROP}TXT="
			fi
		done
		if [ "$DESCRIPTIONSET" == 1 ]; then
			DESCRIPTIONTXT=$ENABLE
		else
			DESCRIPTIONTXT=$DISABLE
		fi
		if [ "$DISPLAYSET" == 1 ]; then
			DISPTXT=$ENABLE
		else
			DISPTXT=$DISABLE
		fi
		if [ "$SDKSET" == 1 ]; then
			SDKTXT=$ENABLE
		else
			SDKTXT=$DISABLE
		fi
		if [ "$SIMSTAGE" == 0 ]; then
			STAGETXT=" ${C}(default)${N}"
		elif [ "$SIMSTAGE" == 1 ]; then
			STAGETXT=" ${C}(post-fs-data)${N}"
		elif [ "$SIMSTAGE" == 2 ]; then
			STAGETXT=" ${C}(late_start service)${N}"
		fi
		if [ -z "$INPUT2" ]; then
			menu_header "${C}$1${N}"
			echo ""
			if [ "$PRINTEDIT" == 0 ]; then
				echo "This option is only enabled if there"
				echo "is a fingerprint set by the module."
				echo ""
				echo "Nothing to do... Returning to main menu."
				sleep 3
				INPUT=""
				break
			fi
			echo "These settings will do basic device"
			echo "simulation by setting certain props"
			echo "based on the currently set device"
			echo "fingerprint."
			echo ""
			echo "Note that this feature is not"
			echo "necessary to pass SafetyNet's CTS"
			echo "profile check and may cause issues."
			echo "${R}Only enable this if you really need it"
			echo "and be careful about which props you"
			echo "enable.${N}"
			echo ""
			echo "Pick an option below."
			echo ""
			echo "${G}s${N} - Device simulation${DEVSIMTXT}"
			if [ "$DEVSIM" == 1 ]; then
				echo "${G}1${N} - ro.product.brand${BRANDTXT}"
				echo "${G}2${N} - ro.product.name${NAMETXT}"
				echo "${G}3${N} - ro.product.device${DEVICETXT}"
				echo "${G}4${N} - ro.build.version.release${RELEASETXT}"
				echo "${G}5${N} - ro.build.id${IDTXT}"
				echo "${G}6${N} - ro.build.version.incremental${INCREMENTALTXT}"
				echo "${G}7${N} - ro.build.version.sdk${SDKTXT}"
				echo "${G}8${N} - ro.build.display.id${DISPTXT}"
			fi
			echo "${G}d${N} - ro.build.description${DESCRIPTIONTXT}"
			echo "${G}t${N} - Boot stage$STAGETXT."
			echo "${G}b${N} - Go back"
			echo "${G}e${N} - Exit"
			echo ""
			echo "See the module readme or the"
			echo "support thread @ XDA for details."
			echo ""
			echo -n "Enter your desired option: "
			read -r INPUT2
		fi
		case "$INPUT2" in
			s|S) menu_dev_sim_enable "$1"
			;;
			1|2|3|4|5|6|7|8|d|D)
				if [ "$DEVSIM" == 1 ] || [ "$INPUT2" == "d" -o "$INPUT2" == "D" ]; then
					menu_dev_sim_prop "$1" "$INPUT2"
				else
					invalid_input 1 2
				fi
			;;
			t|T) menu_bootstage_sim "$1"
			;;
			b|B)
				INPUT=""
				break
			;;
			e|E) exit_fn
			;;
			*)	invalid_input 1 2
			;;
		esac
	done
}

# Third menu level - Enable device simulation
menu_dev_sim_enable() {
	INPUT3=""
	while true
	do
		if [ "$DEVSIM" == 0 ]; then
			STATETXT="${G}enable${N}"
			CURRTXT="${R}disabled${N}"
		else
			STATETXT="${R}disable${N}"
			CURRTXT="${G}enabled${N}"
		fi
		if [ -z "$INPUT3" ]; then
			menu_header "${C}$1${N}"
			echo ""
			echo "Do you want to $STATETXT basic"
			echo "device simulation?"
			echo ""
			echo "Currently $CURRTXT."
			echo ""
			if [ "$DEVSIM" == 0 ]; then
				echo "Enabling this option will let you"
				echo "set certain props based on the"
				echo "currently used device fingerprint."
				echo ""
			fi
			echo -n "Enter ${G}y${N}(es), ${G}n${N}(o) or ${G}e${N}(xit): "
			read -r INPUT3
		fi
		case "$INPUT3" in
			y|Y)
				change_dev_sim "$1" "file"
				INPUT2=""
				break
			;;
			n|N)
				INPUT2=""
				break
			;;
			e|E) exit_fn
			;;
			*)	invalid_input 3 3
			;;
		esac
	done
}

# Third menu level - Set device simulation props
menu_dev_sim_prop() {
	INPUT3=""
	while true
	do
		case "$2" in
			1) TMPTXT="ro.build.brand"
			;;
			2) TMPTXT="ro.build.name"
			;;
			3) TMPTXT="ro.build.device"
			;;
			4) TMPTXT="ro.build.version.release"
			;;
			5) TMPTXT="ro.build.id"
			;;
			6) TMPTXT="ro.build.version.incremental"
			;;
			7) TMPTXT="ro.build.version.sdk"
			;;
			8) TMPTXT="ro.build.display.id"
			;;
			d|D) TMPTXT="ro.build.description"
			;;
		esac
		TMPPROP=$(get_prop_type $TMPTXT | tr '[:lower:]' '[:upper:]')
		if [ "$(get_file_value $LATEFILE "${TMPPROP}SET=")" == 0 ]; then
			STATETXT="${G}enable${N}"
			CURRTXT="${R}disabled${N}"
			TMPVAL=1
		else
			STATETXT="${R}disable${N}"
			CURRTXT="${G}enabled${N}"
			TMPVAL=0
		fi
		if [ -z "$INPUT3" ]; then
			menu_header "${C}$1${N}"
			echo ""
			echo "Do you want to $STATETXT simulating"
			echo "${C}${TMPTXT}${N}?"
			echo "It is currently $CURRTXT."
			echo ""
			echo -n "Enter ${G}y${N}(es), ${G}n${N}(o) or ${G}e${N}(xit): "
			read -r INPUT3
		fi
		case "$INPUT3" in
			y|Y)
				if [ "$TMPPROP" == "DESCRIPTION" ]; then
					change_sim_descr "$1" "$TMPVAL"
				else
					change_sim_prop "$1" "$TMPTXT" "$TMPVAL"
				fi
				INPUT2=""
				break
			;;
			n|N)
				INPUT2=""
				break
			;;
			e|E) exit_fn
			;;
			*)	invalid_input 3 3
			;;
		esac
	done
}

# Third menu level - Boot stage
menu_bootstage_sim() {
	INPUT3=""
	while true
	do
		if [ -z "$INPUT3" ]; then
			if [ "$SIMSTAGE" == 0 ]; then
				CURRTXT="default"
				TMPTXT="${C}post-fs-data${N} or ${C}late_start sevice${N}"
				CHOICETXT="${G}p${N}(ost), ${G}l${N}(ate)"
			elif [ "$SIMSTAGE" == 1 ]; then
				CURRTXT="post-fs-data"
				TMPTXT="${C}default${N} or ${C}late_start service${N}"
				CHOICETXT="${G}d${N}(efault), ${G}l${N}(ate)"
			elif [ "$SIMSTAGE" == 2 ]; then
				CURRTXT="late_start service"
				TMPTXT="${C}default${N} or ${C}post-fs-data${N}"
				CHOICETXT="${G}d${N}(efault), ${G}p${N}(post)"
			fi
			menu_header "${C}$1${N}"
			echo ""
			echo "Current boot stage is ${G}$CURRTXT${N}."
			echo ""
			echo "Do you want to change it to"
			echo "$TMPTXT?"
			echo ""
			echo -n "Enter $CHOICETXT, ${G}b${N}(ack) or ${G}e${N}(xit): "
			read -r INPUT3
		fi
		case "$INPUT3" in
			d|D)
				if [ "$SIMSTAGE" != 0 ]; then
					OPTNEW=0
					log_handler "Boot stage changed to default."
					replace_fn SIMSTAGE $SIMSTAGE $OPTNEW $LATEFILE
					# Load module values
					. $LATEFILE
					INPUT2=""
					after_change "$1"
					break
				else
					invalid_input 1 3
				fi
			;;
			p|P)
				if [ "$SIMSTAGE" != 1 ]; then
					OPTNEW=1
					log_handler "Boot stage changed to post-fs-data."
					replace_fn SIMSTAGE $SIMSTAGE $OPTNEW $LATEFILE
					# Load module values
					. $LATEFILE
					INPUT2=""
					after_change "$1"
					break
				else
					invalid_input 1 3
				fi
			;;
			l|L)
				if [ "$SIMSTAGE" != 2 ]; then
					OPTNEW=2
					log_handler "Boot stage changed to late_start service."
					replace_fn SIMSTAGE $SIMSTAGE $OPTNEW $LATEFILE
					# Load module values
					. $LATEFILE
					INPUT2=""
					after_change "$1"
					break
				else
					invalid_input 1 3
				fi
			;;
			b|B)
				INPUT2=""
				break
			;;
			e|E) exit_fn
			;;
			*)	invalid_input 1 3
			;;
		esac
	done
}

# ======================== MagiskHide Props ========================
# Second menu level - MagiskHide props
menu_magiskhide_props() {
	INPUT2=""
	while true
	do
		ACTIVE="${G} (active)${N}"
		DEBUGGABLETXT=""
		SECURETXT=""
		TYPETXT=""
		TAGSTXT=""
		SELINUXTXT=""
		if [ -z "$INPUT2" ]; then
			if [ "$REDEBUGGABLE" == "true" ]; then
				DEBUGGABLETXT=$ACTIVE
			fi
			if [ "$RESECURE" == "true" ]; then
				SECURETXT=$ACTIVE
			fi
			if [ "$RETYPE" == "true" ]; then
				TYPETXT=$ACTIVE
			fi
			if [ "RETAGS" == "true" ]; then
				TAGSTXT=$ACTIVE
			fi
			if [ "$RESELINUX" == "true" ]; then
				SELINUXTXT=$ACTIVE
			fi
			menu_header "${C}$1${N}\n Select an option below:"
			echo ""
			echo "Change the sensitive props set by MagiskHide."
			echo ""
			echo "${G}1${N} - ro.debuggable${DEBUGGABLETXT}"
			echo "${G}2${N} - ro.secure${SECURETXT}"
			echo "${G}3${N} - ro.build.type${TYPETXT}"
			echo "${G}4${N} - ro.build.tags${TAGSTXT}"
			echo "${G}5${N} - ro.build.selinux${SELINUXTXT}"
			if [ "$PROPCOUNT" -gt 1 ]; then
				echo "${G}r${N} - Reset all props"
			fi
			echo "${G}b${N} - Go back to main menu"
			echo "${G}e${N} - Exit"
			echo ""
			echo "See the module readme or the"
			echo "support thread @ XDA for details."
			echo ""
			echo -n "Enter your desired option: "
			read -r INPUT2
		fi
		case "$INPUT2" in
			1)	menu_change_prop "ro.debuggable" $CURRDEBUGGABLE $ORIGDEBUGGABLE $MODULEDEBUGGABLE		
			;;
			2)	menu_change_prop "ro.secure" $CURRSECURE $ORIGSECURE $MODULESECURE
			;;
			3)	menu_change_prop "ro.build.type" $CURRTYPE $ORIGTYPE $MODULETYPE
			;;
			4)	menu_change_prop "ro.build.tags" $CURRTAGS $ORIGTAGS $MODULETAGS
			;;
			5)	menu_change_prop "ro.build.selinux" $CURRSELINUX $ORIGSELINUX $MODULESELINUX
			;;
			r|R)	
				if [ "$PROPCOUNT" -gt 1 ]; then
					menu_reset_prop_all "Reset all props"
				else
					invalid_input 1 2
				fi
			;;
			b|B)
				INPUT=""
				break
			;;
			e|E) exit_fn
			;;
			*)	invalid_input 1 2
			;;
		esac
	done
}

# Third menu level - MagiskHide props
menu_change_prop() {
	INPUT3=""
	while true
	do
		if [ -z "$INPUT3" ]; then
			PROP=$(get_prop_type "$1")
			REPROP=$(echo "RE${PROP}" | tr '[:lower:]' '[:upper:]')
			menu_header "${C}$1${N}"
			echo ""
			# Checks if the prop exists
			if [ "$2" ]; then
				if [ "$4" ] && [ "$(get_file_value $LATEFILE "${REPROP}=")" == "true" ]; then
					PROPMODULETXT=", by this module"
					BACKTXT=" back"
				else
					PROPMODULETXT=""
					BACKTXT=""
				fi
				echo "Currently set to ${C}$2${N}${PROPMODULETXT}."				
				if [ "$2" != "$3" ]; then
					echo "The original value is ${C}$3${N}."
				fi
				echo ""
				safe_props "$1" $2
				change_to "$1" $2
				if [ "$SAFE" == 1 ]; then
					echo "You currently have the safe value set."
					echo "Are you sure you want to change it$BACKTXT to ${C}$CHANGE${N}?"
				else
					echo "Do you want to change it${BACKTXT} to ${C}$CHANGE${N}?"
				fi
				echo ""
				echo -n "Enter ${G}y${N}(es), ${G}n${N}(o) or ${G}e${N}(xit): "
				read -r INPUT3
			else
				INPUT3="n"
				echo "This prop doesn't currently exist on your system."
				echo ""
				echo "Nothing to do... Returning to main menu."
				sleep 3
			fi
		fi
		case "$INPUT3" in
			y|Y)
				if [ "$PROPMODULETXT" ]; then
					menu_reset_prop "Reset $1" "$1"
				else
					change_prop "$1" $CHANGE
				fi
				INPUT2=""
				break
			;;
			n|N)
				INPUT2=""
				break
			;;
			e|E) exit_fn
			;;
			*)	invalid_input 3 3
			;;
		esac
	done
}

# Third menu level - Reset all MagiskHide props
menu_reset_prop_all() {
	INPUT3=""
	while true
	do
		if [ -z "$INPUT3" ]; then
			menu_header "${C}$1${N}"
			echo ""
			echo "This will reset all prop"
			echo "values to default values."
			echo ""