#!/system/bin/sh

# MagiskHide Props Config
# By Didgeridoohan @ XDA Developers

# ====================================================
# ==================== Root check ====================
# ====================================================

# Check for access to the Magisk internals. No access == no root
ls /data/adb>/dev/null 2>&1
if [ "$?" != 0 ]; then
	su -c props "$@" # Rerun script with root access
	exit
fi

# =====================================================
# ================ Paths and variables ================
# =====================================================

COREPATH=CORE_PLACEHOLDER
IMGPATH=$COREPATH/img
MODPATH=$IMGPATH/MagiskHidePropsConf
LATEFILE=LATE_PLACEHOLDER

# Development testing set to false
DEVTESTING=false
case "$1" in
	*t*) # Development testing
		DEVTESTING=true
	;;
esac

# Colours
if [ -f "$LATEFILE" ] && [ "$(cat $LATEFILE | grep "OPTIONCOLOUR=" | sed 's|.*=||' | sed 's|\"||g')" == 0 ] || [ "$LOGNAME" ]; then
	COLOURCHK="nc"
else
	COLOURCHK="$1"
fi
case "$COLOURCHK" in
	*nc*) # Don't use colours
		G=''
		R=''
		Y=''
		B=''
		V=''
		Bl=''
		C=''
		W=''
		N=''
	;;
	*)	# Use colours
		G='\e[01;32m'    # GREEN
		R='\e[01;31m'    # RED
		Y='\e[01;33m'    # YELLOW
		B='\e[01;34m'    # BLUE
		V='\e[01;35m'    # VIOLET
		Bl='\e[01;30m'   # BLACK
		C='\e[01;36m'    # CYAN
		W='\e[01;37m'    # WHITE
		N='\e[00;37;40m' # NEUTRAL
	;;
esac

# ===================================================
# ==================== Functions ====================
# ===================================================

# Load functions
. $MODPATH/util_functions.sh

log_handler "Running props script."

if [ -z "$BBPATH" ]; then
	menu_header "${C}No Busybox found${N}"
	echo ""
	echo "You don't seem to have Busybox installed"
	echo "to your system. Please install it, since"
	echo "it is required to ensure proper"
	echo "functionality of the scripts."
	echo ""
	echo "I recommend osm0sis' Busybox, installable"
	echo "as a Magisk module from the Magisk repo."
	echo ""
	echo "If you do have Busybox installed, please"
	echo "check the module documentation on how to"
	echo "ask for support and provide logs."
	echo ""
	log_handler "No Busybox found."
	log_handler "Exiting... Bye bye.\n\n===================="	
	exit 0
fi

blank_input() {
	# Find menu level
	case $1 in
		1)	INPUT=""
		;;
		2)	INPUT2=""
		;;
		3)	INPUT3=""
		;;
		4)	INPUT4=""
		;;
		5)	INPUT5=""
		;;
	esac

	echo ""
	echo "${R}Don't enter an empty value${N}."
	echo "Try again."
	sleep 2
}

active_option() {
	echo ""
	echo "${R}That's already the active option.${N}"
	sleep 2
}

invalid_input() {
	INPMSG=""

	# Set the message text
	case $1 in
		1)	INPMSG="Only pick from the list above, one at a time."
		;;
		2)	INPMSG="Only enter '${G}y${N}' or '${G}n${N}'."
		;;
		3)	INPMSG="Only enter '${G}y${N}', '${G}n${N}' or '${G}e${N}'."
		;;
		4)	INPMSG="Only enter '${G}y${N}', '${G}n${N}', '${G}r${N}' or '${G}e${N}'."
		;;
		5)	INPMSG="Enter a fingerprint or pick from the options, one at a time."
		;;
	esac

	# Find menu level
	case $2 in
		1)	INPUT=""
		;;
		2)	INPUT2=""
		;;
		3)	INPUT3=""
		;;
		4)	INPUT4=""
		;;
		5)	INPUT5=""
		;;
	esac

	echo ""
	echo "${R}Invalid input${N}. $INPMSG"
	sleep 2
}

reboot_fn() {
	INPUT5=""
	while true
	do
		if [ -z "$INPUT5" ]; then
			if [ "$2" == "reboot" ] || [ "$2" == "reset-script" ]; then
				REBOOTTXT=""
			else
				REBOOTTXT="Reboot - "
			fi
			menu_header "$REBOOTTXT${C}$1${N}"
			echo ""
			if  [ "$2" != "reset-script" ] && [ "$2" != "reboot" ]; then
				echo "Reboot for changes to take effect."
			fi
			echo "Do you want to reboot now (y/n)?"
			echo ""
			if [ "$2" == "p" ] || [ "$2" == "r" ] || [ "$2" == "reset-script" ]; then
				echo -n "Enter ${G}y${N}(es) or ${G}n${N}(o): "
				INV1=2
			else
				echo -n "Enter ${G}y${N}(es), ${G}n${N}(o) or ${G}e${N}(xit): "	
				INV1=3
			fi
			read -r INPUT5
		fi
		case "$INPUT5" in
			y|Y)
				echo ""
				log_print "Rebooting..."
				setprop sys.powerctl reboot
				sleep 15
				log_handler "Rebooting failed."
				echo ""
				echo "That doesn't seem like it worked..."
				echo "Please reboot manually."
				echo ""
				exit 0
			;;
			n|N)
				if [ "$2" == "p" ] || [ "$2" == "r" ] || [ "$2" == "reset-script" ]; then
					exit_fn
				else
					INPUT=""
					INPUT2=""
					INPUT3=""
					INPUT4=""
					INPUT5=""
					break
				fi
			;;
			e|E)
				if [ "$2" == "p" ] || [ "$2" == "r" ] || [ "$2" == "reset-script" ]; then
					invalid_input $INV1 5
				else
					exit_fn
				fi
			;;
			*)	invalid_input $INV1 5
			;;
		esac
	done
}

exit_fn() {
	menu_header "${C}Bye bye.${N}"
	echo ""
	log_handler "Exiting... Bye bye.\n\n===================="	
	exit 0
}

# ======================== Device's fingerprint ========================
# Second menu level - fingerprint
menu_change_fingerprint() {
	rm -f $CSTMFILE
	INPUT2=""
	while true
	do
		if [ -z "$INPUT2" ]; then
			menu_header "${C}$1${N}"
			echo ""
			if [ "$(get_file_value $LATEFILE "FINGERPRINTENB=")" == 0 ]; then
				echo "Fingerprint modification currently disabled"
				echo "because of a conflicting module."
				echo ""
				echo "Nothing to do... Returning to main menu."
				sleep 3
				INPUT=""
				break
			else
				if [ "$4" ] && [ "$(get_file_value $LATEFILE "PRINTEDIT=")" == 1 ]; then
					PRINTMODULETXT=" (by this module)"
				else
					PRINTMODULETXT=""
				fi
				if [ "$2" ]; then
					echo "Currently set to${PRINTMODULETXT}:"
					echo ""
					if [ "$PRINTMODULETXT" ]; then
						get_device_used $2
					fi
					echo ${C}$2${N}					
					if [ "$2" != "$3" ]; then
						echo ""
						echo "The original value is:"
						echo ${C}$3${N}
					fi
				else
					echo "ro.build.fingerprint doesn't seem to"
					echo "currently exist on your system."
				fi
				echo ""
				echo "Enter the new fingerprint or"
				echo "pick from the options below."
				echo ""
				echo "${G}f${N} - Pick a certified fingerprint"
				if [ "$PRINTMODULETXT" ]; then
					echo "${G}r${N} - Reset fingerprint"
				fi
				if [ "$(get_file_value $LATEFILE "OPTIONWEB=")" == 0 ]; then
					echo "${G}u${N} - Update fingerprints list (v$(get_file_value $PRINTSLOC "PRINTSV="))"
				fi
				echo "${G}b${N} - Go back."
				echo ""
				echo "See the module readme or the"
				echo "support thread @ XDA for details."
				echo ""
				echo -n "Enter '${G}e${N}' to exit: "
				read -r INPUT2
			fi
		fi
		case "$INPUT2" in
			f|F)	menu_pick_print "$1"
			;;
			r|R)
				if [ "$PRINTMODULETXT" ]; then
					menu_reset_print "Reset fingerprint"
				else
					menu_new_print "$1" "$INPUT2" 2
				fi
			;;
			u|U)
				if [ "$(get_file_value $LATEFILE "OPTIONWEB=")" == 0 ]; then
					menu_update_print "Update fingerprints list"
				else
					menu_new_print "$1" "$INPUT2" 2
				fi
			;;
			b|B)
				INPUT=""
				break
			;;
			e|E)	exit_fn
			;;
			""|[[:blank:]]*)	blank_input 2
			;;
			*)
				if [ "${#INPUT2}" -lt 10 ]; then
					invalid_input 5 2
				else
					menu_new_print "$1" "$INPUT2" 2
				fi
			;;
		esac
	done
}

# Third menu level - pick fingerprint
menu_pick_print() {
	INPUT3=""
	OEMLIST=""
	while true
	do
		if [ -z "$INPUT3" ]; then
			# Load the list of fingerprint files
			log_handler "Loading fingerprints list v$(get_file_value $PRINTSLOC "PRINTSV=")."
			OEMLIST="$(ls $PRINTFILES | sed 's|\.sh||g')"
			if [ "$OEMLIST" ]; then
				# Check for custom fingerprints list
				if [ -s "$CSTMPRINTS" ] && [ ! -f "$CSTMFILE" ]; then
					log_handler "Found custom fingerprints list."
					format_file $CSTMPRINTS
					log_handler "Creating custom prints file."
					cat $CSTMPRINTS >> $LOGFILE 2>&1 && echo "" >> $LOGFILE 2>&1
					echo -e "PRINTSLIST=\"" >> $CSTMFILE
					cat $CSTMPRINTS >> $CSTMFILE
					echo -e "\"" >> $CSTMFILE
					# Reload the list with new files
					OEMLIST="$(ls $PRINTFILES | sed 's|\.sh||g')"
				fi
				ITEMCOUNT=1
				menu_header "${C}$1${N}\n List version - v$(get_file_value $PRINTSLOC "PRINTSV=")\n Select an option below."
				echo ""
				for ITEM in $OEMLIST; do
					echo "${G}$ITEMCOUNT${N} - $ITEM"
					ITEMCOUNT=$(($ITEMCOUNT+1))
				done
				echo "${G}b${N} - Go back"
				echo ""
				echo -n "Enter '${G}e${N}' to exit: "
				read -r INPUT3
			else
				log_handler "No fingerprints list."
				collect_logs "issue"
				menu_header "${C}$1${N}\n Something's wrong!"
				echo "Hm... That's not right."
				echo ""
				echo "There is currently no fingerprints list"
				echo "available. Try updating it manually."
				echo ""
				echo "If the issue persists, report it in the"
				echo "support thread @ XDA, ${R}with logs!${C}"
				echo ""
				echo "Logs have automatically been saved to"
				echo "your internal storage ${R}(propslogs.tar.gz)${C}."
				echo ""
				echo -n "Press enter to continue..."
				read -r INPUTTMP
				INPUT2=""
				break
			fi
		fi
		if [ "$INPUT3" -ge 1 ] && [ "$INPUT3" -lt "$ITEMCOUNT" ]; then
			ITEMCOUNT=1
			for ITEM in $OEMLIST; do
				if [ "$ITEMCOUNT" == "$INPUT3" ]; then
					menu_pick_print_sub "$1" "$ITEM"
					break
				fi
				ITEMCOUNT=$(($ITEMCOUNT+1))
			done
		elif [ "$INPUT3" == "b" ] || [ "$INPUT3" == "B" ]; then
			INPUT2=""
			break
		elif [ "$INPUT3" == "e" ] || [ "$INPUT3" == "E" ]; then
			exit_fn
		else
			invalid_input 1 3
		fi
	done
}

# Fourth menu level - pick fingerprint
menu_pick_print_sub() {
	# Loading fingerprints
	TMPFILE=$PRINTFILES/$2.sh
	if [ -f "$TMPFILE" ]; then
		. $TMPFILE
		INPUT4=""
	else
		menu_header "${C}$1${N}\n List version - v$(get_file_value $PRINTSLOC "PRINTSV=")\n Select an option below."
		log_handler "Can't find '$TMPFILE'."
		collect_logs "issue"
		echo "Oh no! Something went wrong..."
		echo ""
		echo "Can't find the fingerprints file."
		echo "Try updating it manually."
		echo ""
		echo "If the issue persists, report it in the"
		echo "support thread @ XDA, ${R}with logs!${C}"
		echo ""
		echo "Logs have automatically been saved to"
		echo "your internal storage ${R}(propslogs.tar.gz)${C}."
		echo ""
		echo -n "Press enter to continue..."
		read -r INPUTTMP
		INPUT4="b"
	fi
	while true
	do
		if [ -z "$INPUT4" ]; then
			ITEMCOUNT=1
			menu_header "${C}$1${N}\n List version - v$(get_file_value $PRINTSLOC "PRINTSV=")\n Select an option below."
			echo ""
			SAVEIFS=$IFS
			IFS=$(echo -en "\n\b")
			for ITEM in $PRINTSLIST; do
				if [ "$(get_first $ITEM)" == "$2" ] || [ "$2" == "Custom" ]; then
					echo "${G}$ITEMCOUNT${N} - $(get_eq_left "$ITEM")"
					ITEMCOUNT=$(($ITEMCOUNT+1))
				fi
			done
			IFS=$SAVEIFS
			echo "${G}b${N} - Go back"
			echo ""
			echo -n "Enter '${G}e${N}' to exit: "
			read -r INPUT4
		fi
		if [ "$INPUT4" -ge 1 ] && [ "$INPUT4" -lt "$ITEMCOUNT" ]; then
			ITEMCOUNT=1
			SAVEIFS=$IFS
			IFS=$(echo -en "\n\b")
			for ITEM in $PRINTSLIST; do
				if [ "$ITEMCOUNT" == "$INPUT4" ]; then
					menu_new_print "$1" $(get_eq_right "$ITEM")					
					break
				fi
				ITEMCOUNT=$(($ITEMCOUNT+1))
			done
			IFS=$SAVEIFS
		elif [ "$INPUT4" == "b" ] || [ "$INPUT4" == "B" ]; then
			INPUT3=""
			break
		elif [ "$INPUT4" == "e" ] || [ "$INPUT4" == "E" ]; then
			exit_fn
		else
			invalid_input 1 4
		fi
	done
}

# Fifth menu level - fingerprint
menu_new_print() {
	INPUT5=""
	PRINTDISP="$(get_print_display $2)"
	while true
	do
		if [ -z "$INPUT5" ]; then
			menu_header "${C}$1${N}"
			echo ""
			echo "You are about to use the following as your device's fingerprint."
			echo ""
			get_device_used $2
			echo "${V}$PRINTDISP${N}"
			echo ""
			echo "Make sure that it is correct before continuing."
			echo ""
			echo -n "Enter ${G}y${N}(es), ${G}n${N}(o) or ${G}e${N}(xit): "
			read -r INPUT5
		fi
		case "$INPUT5" in
			y|Y)
				change_print "$1" "$2"
				break
			;;
			n|N)
				INPUT2=""
				INPUT3=""
				INPUT4=""
				break
			;;
			e|E)	exit_fn
			;;
			*)	invalid_input 3 5
			;;
		esac
	done
}

# Third menu level - Reset fingerprint
menu_reset_print() {
	INPUT3=""
	while true
	do
		if [ -z "$INPUT3" ]; then
			menu_header "${C}$1${N}"
			echo ""
			echo "This will reset the device"
			echo "fingerprint to the default value."
			echo ""
			echo "Do you want to continue?"
			echo ""
			echo -n "Enter ${G}y${N}(es), ${G}n${N}(o) or ${G}e${N}(xit): "
			read -r INPUT3
		fi
		case "$INPUT3" in
			y|Y)	
				reset_print "$1"
				break
			;;
			n|N)
				INPUT2=""
				break
			;;
			e|E)	exit_fn
			;;
			*)	invalid_input 3 3
			;;
		esac
	done
}

# Third menu level - Update fingerprints list
menu_update_print() {
	INPUT3=""
	while true
	do
		if [ -z "$INPUT3" ]; then
			menu_header "${C}$1${N}\n List version - v$(get_file_value $PRINTSLOC "PRINTSV=")"
			echo ""
			echo "Do you want to check online if there"
			echo "is an update to the fingerprints list?"
			echo ""
			echo -n "Enter ${G}y${N}(es), ${G}n${N}(o) or ${G}e${N}(xit): "
			read -r INPUT3
		fi
		case "$INPUT3" in
			y|Y)	
				download_prints "manual"
				INPUT2=""
				break
			;;
			n|N)
				INPUT2=""
				break
			;;
			e|E)	exit_fn
			;;
			*)	invalid_input 3 3
			;;
		esac
	done
}

# ======================== Edit props files ========================
# Second menu level - prop files
menu_edit_prop_files() {
	INPUT2=""
	while true
	do
		if [ -z "$INPUT2" ]; then
			menu_header "${C}$1${N}"
			echo ""
			# Checks if file values are "safe"
			if [ "$(get_file_value $LATEFILE "FILESAFE=")" == 1 ]; then
				echo "Prop file modification currently disabled,"
				echo "since all relevant file values are \"safe\"."
				echo ""
				if [ "$2" == "p" ]; then
					echo "Nothing to do... Exiting."
					exit 0
				else
					echo "Nothing to do... Returning to main menu."
					sleep 3
					INPUT=""
					break
				fi
			else
				# Checks if editing prop files is enabled and/or active
				if [ "$(get_file_value $LATEFILE "BUILDEDIT=")" == 1 ] || [ "$(get_file_value $LATEFILE "DEFAULTEDIT=")" == 1 ]; then
					if [ "$(get_file_value $LATEFILE "BUILDPROPENB=")" == 1 ]; then
						echo "This will revert the values in build.prop"
						echo "and default.prop to their original values."
					else
						echo "This will revert the values in"
						echo "default.prop to the original values."
					fi
				else
					if [ "$(get_file_value $LATEFILE "BUILDPROPENB=")" == 1 ]; then
						echo "This will change values in build.prop"
						echo "and default.prop to match the values"
					else
						echo "This will change values in"
						echo "default.prop to match the values"
					fi
					echo "set by MagiskHide or this module."
				fi
				echo ""
				if [ "$(get_file_value $LATEFILE "BUILDPROPENB=")" == 0 ]; then
					echo "Please note that build.prop editing is"
					echo "disabled because of a conflicting module."
					echo ""
				fi
				echo "Do you want to continue?"
				if [ "$(get_file_value $LATEFILE "BUILDEDIT=")" == 1 ] || [ "$(get_file_value $LATEFILE "DEFAULTEDIT=")" == 1 ]; then
					echo ""
					echo "Enter ${G}r${N} to re-apply the settings."
					echo "This option is only useful if there's been"
					echo "an update to the \"Improved hiding\" feature."
				fi
				echo ""
				echo "See the module readme or the"
				echo "support thread @ XDA for details."
				echo ""
				if [ "$2" == "p" ]; then
					echo -n "Enter ${G}y${N}(es) or ${G}n${N}(o): "
					LOGTXT=" (option -p)"
					INV1=2
					INV2=1
				else
					echo -n "Enter ${G}y${N}(es), ${G}n${N}(o) or ${G}e${N}(xit): "
					LOGTXT=""
					INV1=3
					INV2=2
				fi
				read -r INPUT2
			fi
		fi
		case "$INPUT2" in
			y|Y)
				if [ "$(get_file_value $LATEFILE "BUILDEDIT=")" == 1 ] || [ "$(get_file_value $LATEFILE "DEFAULTEDIT=")" == 1 ]; then
					reset_prop_files "$1" "$2" "$LOGTXT"
				else
					edit_prop_files "$1" "$2" "$LOGTXT"
				fi
				break
			;;
			n|N)
				if [ "$2" == "p" ]; then
					exit_fn
				else
					INPUT=""
					break
				fi
			;;
			r|R)
				if [ "$(get_file_value $LATEFILE "BUILDEDIT=")" == 1 ] || [ "$(get_file_value $LATEFILE "DEFAULTEDIT=")" == 1 ]; then
					edit_prop_files "$1" "$2" "$LOGTXT"
				else
					invalid_input $INV1 $INV2
				fi	
			;;
			e|E)
				if [ "$2" == "p" ]; then
					invalid_input $INV1 $INV2
				else
					exit_fn
				fi
			;;
			*)	invalid_input $INV1 $INV2
			;;
		esac
	done
}

# ======================== MagiskHide Props ========================
# Second menu level - MagiskHide props
menu_magiskhide_props() {
	INPUT2=""
	while true
	do
		ACTIVE="${G} (active)${N}"
		DEBUGGABLETXT=""
		SECURETXT=""
		TYPETXT=""
		TAGSTXT=""
		SELINUXTXT=""
		if [ -z "$INPUT2" ]; then
			if [ "$(get_file_value $LATEFILE "REDEBUGGABLE=")" == "true" ]; then
				DEBUGGABLETXT=$ACTIVE
			fi
			if [ "$(get_file_value $LATEFILE "RESECURE=")" == "true" ]; then
				SECURETXT=$ACTIVE
			fi
			if [ "$(get_file_value $LATEFILE "RETYPE=")" == "true" ]; then
				TYPETXT=$ACTIVE
			fi
			if [ "$(get_file_value $LATEFILE "RETAGS=")" == "true" ]; then
				TAGSTXT=$ACTIVE
			fi
			if [ "$(get_file_value $LATEFILE "RESELINUX=")" == "true" ]; then
				SELINUXTXT=$ACTIVE
			fi
			menu_header "${C}$1${N}\n Select an option below:"
			echo ""
			echo "Change the sensitive props set by MagiskHide."
			echo ""
			echo "${G}1${N} - ro.debuggable${DEBUGGABLETXT}"
			echo "${G}2${N} - ro.secure${SECURETXT}"
			echo "${G}3${N} - ro.build.type${TYPETXT}"
			echo "${G}4${N} - ro.build.tags${TAGSTXT}"
			echo "${G}5${N} - ro.build.selinux${SELINUXTXT}"
			if [ "$(get_file_value $LATEFILE "PROPCOUNT=")" -gt 1 ]; then
				echo "${G}r${N} - Reset all props"
			fi
			echo "${G}b${N} - Go back to main menu"
			echo ""
			echo "See the module readme or the"
			echo "support thread @ XDA for details."
			echo ""
			echo -n "Enter '${G}e${N}' to exit: "
			read -r INPUT2
		fi
		case "$INPUT2" in
			1)	menu_change_prop "ro.debuggable" $CURRDEBUGGABLE $ORIGDEBUGGABLE $MODULEDEBUGGABLE		
			;;
			2)	menu_change_prop "ro.secure" $CURRSECURE $ORIGSECURE $MODULESECURE
			;;
			3)	menu_change_prop "ro.build.type" $CURRTYPE $ORIGTYPE $MODULETYPE
			;;
			4)	menu_change_prop "ro.build.tags" $CURRTAGS $ORIGTAGS $MODULETAGS
			;;
			5)	menu_change_prop "ro.build.selinux" $CURRSELINUX $ORIGSELINUX $MODULESELINUX
			;;
			r|R)	
				if [ "$(get_file_value $LATEFILE "PROPCOUNT=")" -gt 1 ]; then
					menu_reset_prop_all "Reset all props"
				else
					invalid_input 1 2
				fi
			;;
			b|B)
				INPUT=""
				break
			;;
			e|E)	exit_fn
			;;
			*)	invalid_input 1 2
			;;
		esac
	done
}

# Third menu level - MagiskHide props
menu_change_prop() {
	INPUT3=""
	while true
	do
		if [ -z "$INPUT3" ]; then
			PROP=$(get_prop_type "$1")
			REPROP=$(echo "RE${PROP}" | tr '[:lower:]' '[:upper:]')
			menu_header "${C}$1${N}"
			echo ""
			# Checks if the prop exists
			if [ "$2" ]; then
				if [ "$4" ] && [ "$(get_file_value $LATEFILE "${REPROP}=")" == "true" ]; then
					PROPMODULETXT=", by this module"
					BACKTXT=" back"
				else
					PROPMODULETXT=""
					BACKTXT=""
				fi
				echo "Currently set to ${C}$2${N}${PROPMODULETXT}."				
				if [ "$2" != "$3" ]; then
					echo "The original value is ${C}$3${N}."
				fi
				echo ""
				safe_props "$1" $2
				change_to "$1" $2
				if [ "$SAFE" == 1 ]; then
					echo "You currently have the safe value set."
					echo "Are you sure you want to change it$BACKTXT to ${C}$CHANGE${N}?"
				else
					echo "Do you want to change it${BACKTXT} to ${C}$CHANGE${N}?"
				fi
				echo ""
				echo -n "Enter ${G}y${N}(es), ${G}n${N}(o) or ${G}e${N}(xit): "
				read -r INPUT3
			else
				INPUT3="n"
				echo "This prop doesn't currently exist on your system."
				echo ""
				echo "Nothing to do... Returning to main menu."
				sleep 3
			fi
		fi
		case "$INPUT3" in
			y|Y)
				if [ "$PROPMODULETXT" ]; then
					menu_reset_prop "Reset $1" "$1"
				else
					change_prop "$1" $CHANGE
				fi
				break
			;;
			n|N)
				INPUT2=""
				break
			;;
			e|E)	exit_fn
			;;
			*)	invalid_input 3 3
			;;
		esac
	done
}

# Third menu level - Reset all MagiskHide props
menu_reset_prop_all() {
	INPUT3=""
	while true
	do
		if [ -z "$INPUT3" ]; then
			menu_header "${C}$1${N}"
			echo ""
			echo "This will reset all prop"
			echo "values to default values."
			echo ""
			echo "Do you want to continue?"
			echo ""
			echo -n "Enter ${G}y${N}(es), ${G}n${N}(o) or ${G}e${N}(xit): "
			read -r INPUT3
		fi
		case "$INPUT3" in
			y|Y)	
				reset_prop_all "$1"
				break
			;;
			n|N)
				INPUT2=""
				break
			;;
			e|E)	exit_fn
			;;
			*)	invalid_input 3 3
			;;
		esac
	done
}

# Third menu level - Reset specific MagiskHide prop
menu_reset_prop() {
	INPUT3=""
	while true
	do
		if [ -z "$INPUT3" ]; then
			menu_header "${C}$1${N}"
			echo ""
			echo "This will reset $2"
			echo "to it's default value."
			echo ""
			echo "Do you want to continue?"
			echo ""
			echo -n "Enter ${G}y${N}(es), ${G}n${N}(o) or ${G}e${N}(xit): "
			read -r INPUT3
		fi
		case "$INPUT3" in
			y|Y)	
				reset_prop "$2"
				break
			;;
			n|N)
				INPUT2=""
				break
			;;
			e|E)	exit_fn
			;;
			*)	invalid_input 3 3
			;;
		esac
	done
}

# ======================== Custom Props ========================
# Second menu level - Custom props
menu_custom_props() {
	INPUT2=""
	while true
	do
		if [ -z "$INPUT2" ]; then
			ITEMCOUNT=1
			if [ "$(get_file_value $LATEFILE "OPTIONLATE=")" == 0 ]; then
				DEFSTAGETXT=" (post-fs-data)"
			else
				DEFSTAGETXT=" (late_start service)"
			fi
			menu_header "${C}$1${N}\n Select an option below:"
			echo ""			
			if [ "$(get_file_value $LATEFILE "CUSTOMEDIT=")" == 0 ] && [ "$CUSTOMPROPS" -o "$CUSTOMPROPSPOST" -o "$CUSTOMPROPSLATE" ]; then
				CTRLSET=0
				echo "You have ${C}custom props set${N},"
				echo "but the option is ${R}not activated${N}."
				echo ""
				echo "Do you want to activate it (enter ${G}r${N} to reset)?"
				echo ""
				echo -n "Enter ${G}y${N}(es), ${G}n${N}(o), ${G}r${N}(eset) or ${G}e${N}(xit): "
				read -r INPUT2
			else
				CTRLSET=1
				echo "Set or edit custom prop values for your device."
				echo ""
				if [ "$CUSTOMPROPS" ] || [ "$CUSTOMPROPSPOST" ] || [ "$CUSTOMPROPSLATE" ]; then
					if [ "$CUSTOMPROPS" ]; then
						echo "${C}Default boot stage${G}${DEFSTAGETXT}${N}"
						for ITEM in $CUSTOMPROPS; do
							echo "${G}$ITEMCOUNT${N} - $(get_eq_left "$ITEM")"
							ITEMCOUNT=$(($ITEMCOUNT+1))
						done
					fi
					if [ "$CUSTOMPROPSPOST" ]; then
						echo ""
						echo "${C}post-fs-data boot stage${N}"
						for ITEM in $CUSTOMPROPSPOST; do
							echo "${G}$ITEMCOUNT${N} - $(get_eq_left "$ITEM")"
							ITEMCOUNT=$(($ITEMCOUNT+1))
						done
					fi
					if [ "$CUSTOMPROPSLATE" ]; then
						echo ""
						echo "${C}late_start service boot stage${N}"
						for ITEM in $CUSTOMPROPSLATE; do
							echo "${G}$ITEMCOUNT${N} - $(get_eq_left "$ITEM")"
							ITEMCOUNT=$(($ITEMCOUNT+1))
						done
					fi
				else
					echo "Currently no custom props set."
					echo "Please add one by selecting"
					echo "\"New custom prop\" below."
				fi
				echo ""
				echo "${G}n${N} - New custom prop"
				if [ "$CUSTOMPROPS" ] || [ "$CUSTOMPROPSPOST" ] || [ "$CUSTOMPROPSLATE" ]; then
					echo "${G}r${N} - Reset all custom props"
				fi
				echo "${G}b${N} - Go back to main menu"
				echo ""
				echo "See the module readme or the"
				echo "support thread @ XDA for details."
				echo ""
				echo -n "Enter '${G}e${N}' to exit: "
				read -r INPUT2
			fi
			if [ "$INPUT2" -ge 1 -a "$INPUT2" -le "$ITEMCOUNT" ] || [ "$INPUT2" == "y" -a "@CTRLSET" == 0 ] || [ "$INPUT2" == "Y" -a "@CTRLSET" == 0 ]; then
				if [ "$CTRLSET" == 1 ]; then
					ITEMCOUNT=1
					for ITEM in $CUSTOMPROPSLIST; do
						if [ "$ITEMCOUNT" == "$INPUT2" ]; then
							menu_edit_custprop "$(get_eq_left "$ITEM")"
							break
						fi
						ITEMCOUNT=$(($ITEMCOUNT+1))
					done
				elif [ "$CTRLSET" == 0 ]; then
					replace_fn CUSTOMEDIT 0 1 $LATEFILE
					INPUT=""
					break
				fi
			elif [ "$INPUT2" == "n" ] || [ "$INPUT2" == "N" ]; then
				if [ "$CTRLSET" == 1 ]; then
					menu_new_custprop "New custom prop"
				elif [ "$CTRLSET" == 0 ]; then
					INPUT=""
					break
				fi
			elif [ "$INPUT2" == "r" ] || [ "$INPUT2" == "R" ]; then
				if [ "$CTRLSET" == 1 ]; then
					menu_reset_all_custprop "Reset all custom props"
				elif [ "$CTRLSET" == 0 ]; then
					menu_reset_all_custprop "Reset all custom props"
				fi
			elif [ "$INPUT2" == "b" ] || [ "$INPUT2" == "B" ]; then
				if [ "$CTRLSET" == 1 ]; then
					INPUT=""
					break
				elif [ "$CTRLSET" == 0 ]; then
					invalid_input 4 2
				fi
			elif [ "$INPUT2" == "e" ] || [ "$INPUT2" == "E" ]; then
				exit_fn
			else
				if [ "$CTRLSET" == 1 ]; then
					invalid_input 1 2
				elif [ "$CTRLSET" == 0 ]; then
					invalid_input 4 2
				fi
			fi
		fi
	done
}

# Third menu level - Edit custom prop
menu_edit_custprop() {
	INPUT3=""
	if [ "$(echo $CUSTOMPROPS | grep $1)" ]; then
		STAGETXT=" ${G}(default)${N}"
	elif [ "$(echo $CUSTOMPROPSPOST | grep $1)" ]; then
		STAGETXT=" ${G}(post-fs-data)${N}"
	elif [ "$(echo $CUSTOMPROPSLATE | grep $1)" ]; then
		STAGETXT=" ${G}(late_start service)${N}"
	else
		TMPBSTAGE=""
	fi
	while true
	do
		if [ -z "$INPUT3" ]; then
			for ITEM in $CUSTOMPROPSLIST; do
				TMPITEM=$( echo $(get_eq_right "$ITEM") | sed 's|_sp_| |g')
				if [ "$(get_eq_left "$ITEM")" == "$1" ]; then
					if [ "$TMPITEM" == "$(resetprop $1)" ]; then
						PROPNOTSET=0
						SETPROPVALUE="$TMPITEM"
					else
						PROPNOTSET=1
					fi
					break
				fi
			done
			menu_header "${C}$1${N}"
			echo ""
			echo "The current value for"
			echo "${C}'$1'${N} is:"
			echo ""
			echo "${C}$(resetprop $1)${N}"
			if [ "$PROPNOTSET" == 0 ]; then
				echo "(Set by this module.)"
				echo ""
				echo "Enter a new value or select"
				echo "from the options below."
				echo ""
				echo "${G}s${N} - Prop boot stage$STAGETXT"
				echo "${G}r${N} - Reset prop"
			else
				echo "${R}Not yet set by this module. Please reboot to set.${N}"
				if [ "$(get_file_value $LATEFILE "OPTIONLATE=")" == 0 ] || [ "$STAGETXT" == " ${G}(post-fs-data)${N}" ]; then
					echo ""
					echo "This might be caused by the prop being set to early."
					echo "If the above state does not change after a reboot,"
					echo "try changing the boot stage when the prop is set"
					echo "to late_start service."
				fi
				echo ""
				echo "${G}r${N} - Reboot"
			fi
			echo "${G}b${N} - Go back."
			echo ""
			echo -n "Enter '${G}e${N}' to exit: "
			read -r INPUT3
		fi
		case "$INPUT3" in
			s|S)
				menu_bootstage_custprop "$1"
			;;
			r|R)
				if [ "$PROPNOTSET" == 0 ]; then
					menu_reset_custprop "$1" "$SETPROPVALUE"
					break
				else
					reboot_fn "Reboot device" "reboot"
				fi
			;;
			b|B)
				INPUT2=""
				break
			;;
			e|E)	exit_fn
			;;
			*)
				if [ "$PROPNOTSET" == 0 ]; then
					menu_set_custprop "$1" "$INPUT3" "$(resetprop $1)"
					break
				else
					invalid_input 1 3
				fi
			;;
		esac
	done
}

# Third menu level - New custom prop
menu_new_custprop() {
	INPUT3=""
	while true
	do
		if [ -z "$INPUT3" ]; then
			menu_header "${C}$1${N}"
			echo ""
			echo "Enter the prop to set,"
			echo "or ${G}b${N} to go back."
			echo ""
			echo -n "Enter '${G}e${N}' to exit: "
			read -r INPUT3
		fi
		case "$INPUT3" in
			b|B)
				INPUT2=""
				break
			;;
			e|E)	exit_fn
			;;
			""|[[:blank:]]*)	blank_input 3
			;;
			*)
				if [ "$(echo $PROPSLIST | grep -o $INPUT3)" ] || [ "$(echo $CUSTOMPROPSLIST | grep -o $INPUT3)" ]; then
					menu_magiskhide_custprop "$INPUT3"
				else
					menu_set_new_custprop "$INPUT3"
					break
				fi
			;;
		esac
	done
}

# Third menu level - Reset all custom props
menu_reset_all_custprop() {
	INPUT3=""
	while true
	do
		if [ -z "$INPUT3" ]; then
			menu_header "${C}$1${N}"
			echo ""
			echo "This will reset all"
			echo "custom prop values."
			echo ""
			echo "Do you want to continue?"
			echo ""
			echo -n "Enter ${G}y${N}(es), ${G}n${N}(o) or ${G}e${N}(xit): "
			read -r INPUT3
		fi
		case "$INPUT3" in
			y|Y)
				reset_all_custprop
				INPUT2=""
				break
			;;
			n|N)
				INPUT2=""
				break
			;;
			e|E)	exit_fn
			;;
			*)	invalid_input 3 3
			;;
		esac
	done
}

# Fourth menu level - MagiskHide custom prop and duplicate props
menu_magiskhide_custprop() {
	INPUT4=""
	while true
	do
		if [ -z "$INPUT4" ]; then
			menu_header "${C}$1${N}"
			echo ""
			if [ "$(echo $PROPSLIST | grep -o $1)" ]; then
				echo "That prop, ${C}$1${N}, is"
				echo "one of the sensitive props already set"
				echo "by MagiskHide. No need to do it again."
			else
				echo "That prop, ${C}$1${N}, is"
				echo "already on your list of custom props."
				echo "No need to set it again."
			fi
			echo ""
			echo "${G}b${N} - Go back."
			echo ""
			echo -n "Enter '${G}e${N}' to exit: "
			read -r INPUT4
		fi
		case "$INPUT4" in
			b|B)
				INPUT3=""
				break
			;;
			e|E)	exit_fn
			;;
			*)	invalid_input 1 4
			;;
		esac
	done
}

# Fourth menu level - Set new custom prop
menu_set_new_custprop() {
	INPUT4=""
	TMPPROP=$(resetprop "$1")
	while true
	do
		if [ -z "$INPUT4" ]; then
			menu_header "${C}$1${N}"
			echo ""
			echo "Enter the value to set"
			echo "${C}$1${N} to,"
			echo "or select from the options below."
			echo ""
			if [ "$TMPPROP" ]; then
				echo "The current value is:"
				echo "${C}$TMPPROP${N}"
			else
				echo "This prop currently doesn't exist on your system."
			fi
			echo ""
			echo "${G}b${N} - Go back."
			echo ""
			echo -n "Enter '${G}e${N}' to exit: "
			read -r INPUT4
		fi
		case "$INPUT4" in
			b|B)
				INPUT2=""
				INPUT3=""
				break
			;;
			e|E)	exit_fn
			;;
			""|[[:blank:]]*)	blank_input 4
			;;
			*)
				menu_set_custprop "$1" "$INPUT4" "$TMPPROP"
				INPUT2=""
				INPUT3=""
				break
			;;
		esac
	done
}

# Fourth menu level - Custom prop boot stage
menu_bootstage_custprop() {
	INPUT4=""
	if [ "$(echo $CUSTOMPROPS | grep $1)" ]; then
		TMPBSTAGE="default"
		DEFAULTTXT="${G} (current)${N}"
		POSTTXT=""
		LATETXT=""
	elif [ "$(echo $CUSTOMPROPSPOST | grep $1)" ]; then
		TMPBSTAGE="post-fs-data"
		DEFAULTTXT=""
		POSTTXT="${G} (current)${N}"
		LATETXT=""
	elif [ "$(echo $CUSTOMPROPSLATE | grep $1)" ]; then
		TMPBSTAGE="late_start service"
		DEFAULTTXT=""
		POSTTXT=""
		LATETXT="${G} (current)${N}"
	else
		TMPBSTAGE=""
	fi
	while true
	do