#!/system/bin/sh

# MagiskHide Props Config
# Copyright (c) 2018-2021 Didgeridoohan @ XDA Developers
# Licence: MIT

# ====================================================
# ==================== Root check ====================
# ====================================================

# Check for access to the Magisk internals. No access == no root
ls /data/adb>/dev/null 2>&1
if [ "$?" != 0 ]; then
	su -c props "$@" # Rerun script with root access
	exit
fi

# Startup message
echo ""
echo "Loading... Please wait."
echo ""

# =====================================================
# ================ Paths and variables ================
# =====================================================

ADBPATHPH=ADB_PLACEHOLDER
MODPATH=$ADBPATH/modules/MagiskHidePropsConf
LATEFILEPH=LATE_PLACEHOLDER
BOOTSTAGE="props"

# Development testing check
DEVTESTING=false
case "$1" in
	*t*) # Development testing
		DEVTESTING=true
	;;
esac

# Colours
if [ -f "$LATEFILE" ] && [ "$(grep "OPTIONCOLOUR=" $LATEFILE | sed 's|.*=||' | sed 's|\"||g')" == 0 ] || [ "$ANDROID_SOCKET_adbd" ]; then
	COLOURCHK="nc"
else
	COLOURCHK="$1"
fi
case "$COLOURCHK" in
	*nc*) # Don't use colours
		G=''
		R=''
		Y=''
		B=''
		V=''
		Bl=''
		C=''
		W=''
		N=''
	;;
	*)	# Use colours
		G='\e[01;32m'    # GREEN
		R='\e[01;31m'    # RED
		Y='\e[01;33m'    # YELLOW
		B='\e[01;34m'    # BLUE
		V='\e[01;35m'    # VIOLET
		Bl='\e[01;30m'   # BLACK
		C='\e[01;36m'    # CYAN
		W='\e[01;37m'    # WHITE
		N='\e[00;37;40m' # NEUTRAL
	;;
esac

# ===================================================
# ==================== Functions ====================
# ===================================================

# Load functions
. $MODPATH/common/util_functions.sh

if [ -f "$VLOGFILE" ]; then
		mv -f $VLOGFILE $VLASTLOGFILE
	fi
set -x 2>$VLOGFILE

log_handler "Running props script."

# Checking for Busybox
if [ ! -f "$BBPATH" ]; then
	menu_header "${C}No Busybox found${N}"
	echo ""
	echo "The script couldn't find Magisk's Busybox."
	echo "Make sure that your installation of Magisk"
	echo "is functioning properly and try again."
	echo ""
	echo "If you can't find anything wrong, please"
	echo "check the module documentation on how to"
	echo "ask for support and please provide"
	echo "logs (see the module documentation)."
	echo ""
	log_handler "No Busybox found."
	log_handler "Exiting... Bye bye.\n\n===================="
	exit 0
fi

# Check MagiskHide status
MHTEMP=$(magiskhide status) >> $LOGFILE 2>&1

blank_input() {
	# Find menu level
	case $1 in
		1)	INPUT=""
		;;
		2)	INPUT2=""
		;;
		3)	INPUT3=""
		;;
		4)	INPUT4=""
		;;
		5)	INPUT5=""
		;;
		6)	INPUT6=""
		;;
	esac

	echo ""
	echo -e "${R}Don't enter an empty value${N}."
	echo "Try again."
	sleep 2
}

active_option() {
	echo ""
	echo -e "${R}That's already the active option.${N}"
	sleep 2
}

invalid_input() {
	INPMSG=""

	# Set the message text
	case $1 in
		1) INPMSG="Only pick from the options above, one at a time."
		;;
		2) INPMSG="Only enter '${G}y${N}' or '${G}n${N}'."
		;;
		3) INPMSG="Only enter '${G}y${N}', '${G}n${N}' or '${G}e${N}'."
		;;
		4) INPMSG="Only enter '${G}y${N}', '${G}n${N}', '${G}r${N}' or '${G}e${N}'."
		;;
		5) INPMSG="Only enter '${G}d${N}', '${G}y${N}', '${G}n${N}' or '${G}e${N}'."
		;;
		6) INPMSG="Enter a fingerprint or pick from the options, one at a time."
		;;
		7) INPMSG="Only pick numbers, separated by a comma."
		;;
		8) INPMSG="Only enter numbers, or an option from above."
		;;
	esac

	# Find menu level
	case $2 in
		1) INPUT=""
		;;
		2) INPUT2=""
		;;
		3) INPUT3=""
		;;
		4) INPUT4=""
		;;
		5) INPUT5=""
		;;
		6) INPUT6=""
		;;
		7) INPUT7=""
		;;
	esac

	echo ""
	echo -e "${R}Invalid input${N}. $INPMSG"
	sleep 2
}

exit_fn() {
	menu_header "${C}Bye bye.${N}"
	echo ""
	log_handler "Exiting... Bye bye.\n\n===================="
	exit 0
}

# ======================== Device's fingerprint ========================
# Second menu level - fingerprint, $1=header, $2=Current fingerprint, $3=Original fingerprint, $4=Module set fingerprint
menu_change_fingerprint() {
	rm -f $CSTMFILE
	if [ "$DEVPRINTS" == "true" ]; then
		INPUT2=f
	else
		INPUT2=""
	fi
	while true
	do
		if [ -z "$INPUT2" ]; then
			menu_header "${C}$1${N}"
			echo ""
			echo "Edit the device fingerprint to"
			echo "pass SafetyNet's CTS profile."
			echo
			if [ "$FINGERPRINTENB" == 0 ]; then
				echo "Fingerprint modification currently"
				echo "disabled because of a conflicting"
				echo "module (see the logs for details)."
				echo ""
				echo "Nothing to do... Returning to main menu."
				sleep 3
				INPUT=""
				break
			else
				if [ "$4" ] && [ "$PRINTEDIT" == 1 ]; then
					PRINTMODULETXT=" (by this module)"
				else
					PRINTMODULETXT=""
				fi
				if [ "$PRINTSTAGE" == 0 ]; then
					PRINTSTAGETXT="default"
				elif [ "$PRINTSTAGE" == 1 ]; then
					PRINTSTAGETXT="post-fs-data"
				elif [ "$PRINTSTAGE" == 2 ]; then
					PRINTSTAGETXT="late_start service"
				fi
				if [ "$PATCHSTAGE" == 0 ]; then
					PATCHSTAGETXT="default"
				elif [ "$PATCHSTAGE" == 1 ]; then
					PATCHSTAGETXT="post-fs-data"
				elif [ "$PATCHSTAGE" == 2 ]; then
					PATCHSTAGETXT="late_start service"
				fi
				if [ "$2" ]; then
					echo "Currently set to${PRINTMODULETXT}:"
					echo ""
					if [ "$PRINTMODULETXT" ]; then
						get_device_used "$2"
					fi
					echo -e ${C}$2${N}
					if [ "$2" != "$3" ]; then
						echo ""
						echo "The original value is:"
						echo -e ${C}$3${N}
					fi
				else
					echo "ro.build.fingerprint doesn't seem to"
					echo "currently exist on your system."
				fi
				echo ""
				echo "Enter the new fingerprint or"
				echo "pick from the options below."
				echo ""
				$(magiskhide status)
				echo ""
				echo -e "${G}f${N} - Pick a certified fingerprint"
				if [ "$PRINTMODULETXT" ]; then
					echo -e "${G}r${N} - Reset fingerprint"
				fi
				if [ "$ORIGVENDPRINT" ]; then
					if [ "$PRINTVEND" == 1 ]; then
						VENDTXT="${G} (active)${N}"
					else
						VENDTXT=""
					fi
					echo -e "${G}v${N} - Use vendor fingerprint (for Treble GSI ROMs)${VENDTXT}"
				fi
				if [ "$OPTIONWEBP" == 0 ]; then
					echo -e "${G}u${N} - Update fingerprints list (v$(get_file_value $PRINTSLOC "PRINTSV="))"
				fi
				echo -e "${G}s${N} - Boot stages (${C}${PRINTSTAGETXT}/${PATCHSTAGETXT}${N})."
				echo -e "${G}b${N} - Go back."
				echo -e "${G}e${N} - Exit"
				echo ""
				if [ "$PRINTCHK" == 1 ]; then
					echo -e "${R}The device fingerprint has been updated.${N}"
					echo -e "${R}Please reboot to apply.${N}"
					echo ""
				fi
				echo "See the module readme or the"
				echo "support thread @ XDA for details."
				echo ""
				echo -n "Enter your desired option: "
				read -r INPUT2
			fi
		fi
		case "$INPUT2" in
			f|F)	menu_pick_print "$1"
			;;
			r|R)
				if [ "$PRINTMODULETXT" ]; then
					menu_reset_print "Reset fingerprint"
				else
					menu_new_print "$1" "$INPUT2" 2
				fi
			;;
			v|V)
				if [ "$ORIGVENDPRINT" ]; then
					menu_vendor_print "$1"
				else
					invalid_input 6 2
				fi
			;;
			u|U)
				if [ "$OPTIONWEBP" == 0 ]; then
					menu_update_print "Update fingerprints list"
				else
					menu_new_print "$1" "$INPUT2" 2
				fi
			;;
			s|S) menu_bootstage_print "$1"
			;;
			b|B)
				INPUT=""
				break
			;;
			e|E) exit_fn
			;;
			""|[[:blank:]]*)	blank_input 2
			;;
			*)
				if [ "${#INPUT2}" -lt 10 ]; then
					invalid_input 6 2
				else
					menu_new_print "$1" "$INPUT2" 2
				fi
			;;
		esac
	done
}

# Third menu level - pick fingerprint, $1=header
menu_pick_print() {
	DEVPRINTS="" # Disable automatically entering the fingerprints list after the first time.
	INPUT3=""
	OEMLIST=""
	HEADERPRINTV="${C}$1${N}\n List version - v$(get_file_value $PRINTSLOC "PRINTSV=")\n Select an option below."
	while true
	do
		if [ -z "$INPUT3" ]; then
			# Load the list of fingerprint files
			log_handler "Loading fingerprints list v$(get_file_value $PRINTSLOC "PRINTSV=")."
			OEMLIST="$(ls $PRINTFILES | sed 's|\.sh||g')"
			if [ "$OEMLIST" ]; then
				# Check for custom fingerprints list
				if [ -s "$CSTMPRINTS" ] && [ ! -f "$CSTMFILE" ]; then
					log_handler "Found custom fingerprints list."
					format_file $CSTMPRINTS
					log_handler "Creating custom prints file."
					cat $CSTMPRINTS >> $LOGFILE 2>&1 && echo "" >> $LOGFILE 2>&1
					echo -e "PRINTSLIST=\"" >> $CSTMFILE
					cat $CSTMPRINTS >> $CSTMFILE
					echo -e "\"" >> $CSTMFILE
					# Reload the list with new files
					OEMLIST="$(ls $PRINTFILES | sed 's|\.sh||g')"
				fi
				ITEMCOUNT=1
				menu_header "$HEADERPRINTV"
				echo ""
				# Display currently set print when fingerprints testing
				if [ "$(get_file_value $PRINTSLOC "PRINTSV=")" == "Dev" ]; then
					TMPDEVPRINT="$(getprop ro.build.fingerprint)"
					echo "Currently set to:"
					get_device_used $TMPDEVPRINT
					echo -e "${C}$TMPDEVPRINT${N}"
					echo ""
				fi
				for ITEM in $OEMLIST; do
					echo -e "${G}$ITEMCOUNT${N} - $ITEM"
					ITEMCOUNT=$(($ITEMCOUNT+1))
				done
				echo -e "${G}b${N} - Go back"
				echo -e "${G}e${N} - Exit"
				echo ""
				echo -n "Enter your desired option: "
				read -r INPUT3
			else
				log_handler "No fingerprints list."
				collect_logs "issue"
				menu_header "${C}$1${N}\n Something's wrong!"
				echo "Hm... That's not right."
				echo ""
				echo "There is currently no fingerprints list"
				echo "available. Try updating it manually."
				echo ""
				echo "If the issue persists, report it in the"
				echo -e "support thread @ XDA, ${R}with logs!${C}"
				echo ""
				echo "Logs have automatically been saved to"
				echo -e "your internal storage ${R}(propslogs.tar.gz)${C}."
				echo ""
				echo -n "Press enter to continue..."
				read -r INPUTTMP
				INPUT2=""
				break
			fi
		fi
		case "$INPUT3" in
			b|B)
				INPUT2=""
				break
			;;
			e|E) exit_fn
			;;
			*)
				if [ "$INPUT3" -ge 1 -a "$INPUT3" -lt "$ITEMCOUNT" ]; then
					ITEMCOUNT=1
					for ITEM in $OEMLIST; do
						if [ "$ITEMCOUNT" == "$INPUT3" ]; then
							menu_pick_print_sub "$HEADERPRINTV" "$ITEM"
							break
						fi
						ITEMCOUNT=$(($ITEMCOUNT+1))
					done
				else
					invalid_input 1 3
				fi
			;;
		esac
	done
}

# Fourth menu level - pick fingerprint, $1=header, $2=OEM
menu_pick_print_sub() {
	# Loading fingerprints
	TMPFILE=$PRINTFILES/$2.sh
	if [ -f "$TMPFILE" ]; then
		. $TMPFILE
		INPUT4=""
	else
		menu_header "$1"
		log_handler "Can't find '$TMPFILE'."
		collect_logs "issue"
		echo "Oh no! Something went wrong..."
		echo ""
		echo "Can't find the fingerprints file."
		echo "Try updating it manually."
		echo ""
		echo "If the issue persists, report it in the"
		echo -e "support thread @ XDA, ${R}with logs!${C}"
		echo ""
		echo "Logs have automatically been saved to"
		echo -e "your internal storage ${R}(propslogs.tar.gz)${C}."
		echo ""
		echo -n "Press enter to continue..."
		read -r INPUTTMP
		INPUT4="b"
	fi
	while true
	do
		if [ -z "$INPUT4" ]; then
			ITEMCOUNT=1
			menu_header "$1"
			echo ""
			# Display currently set print when fingerprints testing
			if [ "$(get_file_value $PRINTSLOC "PRINTSV=")" == "Dev" ]; then
				TMPDEVPRINT="$(getprop ro.build.fingerprint)"
				echo "Currently set to:"
				get_device_used $TMPDEVPRINT
				echo -e "${C}$TMPDEVPRINT${N}"
				echo ""
			fi
			SAVEIFS=$IFS
			IFS=$(echo -en "\n\b")
			for ITEM in $PRINTSLIST; do
				if [ "$(get_first $ITEM)" == "$2" ] || [ "$2" == "Custom" ]; then
					echo -e "${G}$ITEMCOUNT${N} - $(get_device "$ITEM")"
					ITEMCOUNT=$(($ITEMCOUNT+1))
				fi
			done
			IFS=$SAVEIFS
			echo -e "${G}b${N} - Go back"
			echo -e "${G}e${N} - Exit"
			echo ""
			echo -n "Enter your desired option: "
			read -r INPUT4
		fi
		case "$INPUT4" in
			b|B)
				INPUT3=""
				break
			;;
			e|E) exit_fn
			;;
			*)
				if [ "$INPUT4" -ge 1 -a "$INPUT4" -lt "$ITEMCOUNT" ]; then
					ITEMCOUNT=1
					SAVEIFS=$IFS
					IFS=$(echo -en "\n\b")
					for ITEM in $PRINTSLIST; do
						if [ "$ITEMCOUNT" == "$INPUT4" ]; then
							case "$ITEM" in
								*\;*)
									IFS=$SAVEIFS
									menu_pick_print_version "$1" "$(get_device "$ITEM")" "$(get_eq_right "$ITEM")"
									INPUT2=""
									INPUT3=""
									break
								;;
								*)
									IFS=$SAVEIFS
									menu_new_print "$1" "$(get_eq_right "$ITEM")"
									INPUT2=""
									INPUT3=""
									break
								;;
							esac
						fi
						ITEMCOUNT=$(($ITEMCOUNT+1))
					done
					IFS=$SAVEIFS
				else
					invalid_input 1 4
				fi
			;;
		esac
	done
}

# Fifth menu level - pick Android version, $1=header, $2=Device, $3=fingerprint string (without device info)
menu_pick_print_version() {
	INPUT5=""
	ANDROIDV="$(get_print_versions "$2")"
	while true
	do
		if [ -z "$INPUT5" ]; then
			ITEMCOUNT=1
			menu_header "$1"
			echo ""
			echo "There are several fingerprints available"
			echo "for this device, for different versions"
			echo "of Android. Pick one."
			echo ""
			echo -e "${C}$(echo "$2" | sed 's| (.*||')${N}"
			echo ""
			for ITEM in $ANDROIDV; do
				echo -e "${G}$ITEMCOUNT${N} - Android version ${C}$ITEM${N}"
				ITEMCOUNT=$(($ITEMCOUNT+1))
			done
			echo -e "${G}b${N} - Go back"
			echo -e "${G}e${N} - Exit"
			echo ""
			echo -n "Enter your desired option: "
			read -r INPUT5
		fi
		case "$INPUT5" in
			b|B)
				INPUT4=""
				break
			;;
			e|E) exit_fn
			;;
			*)
				if [ "$INPUT5" -ge 1 -a "$INPUT5" -lt "$ITEMCOUNT" ]; then
					ITEMCOUNT=1
					for ITEM in $ANDROIDV; do
						if [ "$ITEMCOUNT" == "$INPUT5" ]; then
							TMPPRINT="$(echo $3 | cut -f $ITEMCOUNT -d ';')"
							menu_new_print "$1" "$TMPPRINT"
							INPUT2=""
							INPUT3=""
							INPUT4=""
							break
						fi
						ITEMCOUNT=$(($ITEMCOUNT+1))
					done
				else
					invalid_input 1 5
				fi
			;;
		esac
	done
}

# Sixth menu level - confirm fingerprint, $1=header, $2=fingerprint
menu_new_print() {
	# Check if fingerprints testing is active
	if [ "$(get_file_value $PRINTSLOC "PRINTSV=")" == "Dev" ]; then
		DEVCHK=true
		INPUT6=y
	else
		DEVCHK=false
		INPUT6=""
	fi
	while true
	do
		if [ -z "$INPUT6" ]; then
			menu_header "${C}$1${N}"
			echo ""
			echo "You are about to use the following as your device's fingerprint."
			echo ""
			get_device_used "$2"
			echo -e "${V}$(get_print_display $2)${N}"
			echo ""
			echo "Make sure that it is correct before continuing."
			echo "Do you want to continue?"
			echo ""
			echo -en "Enter ${G}y${N}(es), ${G}n${N}(o) or ${G}e${N}(xit): "
			read -r INPUT6
		fi
		case "$INPUT6" in
			y|Y)
				change_print "$1" "$2"
				if [ "$DEVCHK" == "true" ]; then
					force_reboot
				fi
				INPUT2=""
				INPUT3=""
				INPUT4=""
				INPUT5=""
				break
			;;
			n|N)
				INPUT2=""
				INPUT3=""
				INPUT4=""
				INPUT5=""
				break
			;;
			e|E) exit_fn
			;;
			*)	invalid_input 3 6
			;;
		esac
	done
}

# Third menu level - Reset fingerprint, $1=header
menu_reset_print() {
	INPUT3=""
	while true
	do
		if [ -z "$INPUT3" ]; then
			menu_header "${C}$1${N}"
			echo ""
			echo "This will reset the device"
			echo "fingerprint to the default value."
			echo ""
			echo "Do you want to continue?"
			echo ""
			echo -en "Enter ${G}y${N}(es), ${G}n${N}(o) or ${G}e${N}(xit): "
			read -r INPUT3
		fi
		case "$INPUT3" in
			y|Y)
				reset_print "$1"
				INPUT2=""
				break
			;;
			n|N)
				INPUT2=""
				break
			;;
			e|E) exit_fn
			;;
			*)	invalid_input 3 3
			;;
		esac
	done
}

# Third menu level - Vendor fingerprint, $1=header
menu_vendor_print() {
	INPUT3=""
	while true
	do
		if [ "$PRINTVEND" == 0 ]; then
			STATETXT="${G}enable${N}"
			CURRTXT="${R}disabled${N}"
			TMPVAL=1
		else
			STATETXT="${R}disable${N}"
			CURRTXT="${G}enabled${N}"
			TMPVAL=0
		fi
		if [ -z "$INPUT3" ]; then
			menu_header "${C}$1${N}"
			echo ""
			echo -e "This will $STATETXT using the vendor"
			echo "fingerprint for Treble GSI ROMs."
			echo ""
			echo -e "The option is currently $CURRTXT."
			echo ""
			echo "Do you want to continue?"
			echo ""
			echo "See the module readme or the"
			echo "support thread @ XDA for details."
			echo ""
			echo -en "Enter ${G}y${N}(es), ${G}n${N}(o) or ${G}e${N}(xit): "
			read -r INPUT3
		fi
		case "$INPUT3" in
			y|Y)
				change_print_vendor "$1" "$TMPVAL"
				INPUT2=""
				break
			;;
			n|N)
				INPUT2=""
				break
			;;
			e|E) exit_fn
			;;
			*)	invalid_input 3 3
			;;
		esac
	done
}

# Third menu level - Update fingerprints listj, $1=header
menu_update_print() {
	INPUT3=""
	while true
	do
		if [ -z "$INPUT3" ]; then
			menu_header "${C}$1${N}\n List version - v$(get_file_value $PRINTSLOC "PRINTSV=")"
			echo ""
			echo "Do you want to check online if there"
			echo "is an update to the fingerprints list?"
			echo ""
			echo -en "Enter ${G}y${N}(es), ${G}n${N}(o) or ${G}e${N}(xit): "
			read -r INPUT3
		fi
		case "$INPUT3" in
			y|Y)
				download_prints "manual"
				INPUT2=""
				break
			;;
			n|N)
				INPUT2=""
				break
			;;
			e|E) exit_fn
			;;
			*)	invalid_input 3 3
			;;
		esac
	done
}

# Third menu level - Boot stage, $1=header
menu_bootstage_print() {
	INPUT3=""
	while true
	do
		if [ -z "$INPUT3" ]; then
			if [ "$PRINTSTAGE" == 0 ]; then
				PRINTSTAGETXT=" ${C}(default)${N}"
			elif [ "$PRINTSTAGE" == 1 ]; then
				PRINTSTAGETXT=" ${C}(post-fs-data)${N}"
			elif [ "$PRINTSTAGE" == 2 ]; then
				PRINTSTAGETXT=" ${C}(late_start service)${N}"
			fi
			if [ "$PATCHSTAGE" == 0 ]; then
				PATCHSTAGETXT=" ${C}(default)${N}"
			elif [ "$PATCHSTAGE" == 1 ]; then
				PATCHSTAGETXT=" ${C}(post-fs-data)${N}"
			elif [ "$PATCHSTAGE" == 2 ]; then
				PATCHSTAGETXT=" ${C}(late_start service)${N}"
			fi
			menu_header "${C}$1${N}"
			echo ""
			echo "Change boot stage for the device fingerprint"
			echo "or security patch date props."
			echo ""
			echo "Pick an option below."
			echo ""
			echo -e "${G}1${N} - Device fingerprint$PRINTSTAGETXT."
			echo -e "${G}2${N} - Security patch date$PATCHSTAGETXT."
			echo -e "${G}b${N} - Go back"
			echo -e "${G}e${N} - Exit"
			echo ""
			echo -n "Enter your desired option: "
			read -r INPUT3
		fi
		case "$INPUT3" in
			1)
				menu_bootstage_print_set "$1" "print"
				INPUT2=""
				break
			;;
			2)
				menu_bootstage_print_set "$1" "patch"
				INPUT2=""
				break
			;;
			b|B)
				INPUT2=""
				break
			;;
			e|E) exit_fn
			;;
			*)	invalid_input 1 3
			;;
		esac
	done
}

# Fourth menu level - Set boot stage, $1=header, $2=type (print or patch)
menu_bootstage_print_set() {
	INPUT4=""
	while true
	do
		if [ -z "$INPUT4" ]; then
			if [ "$2" == "print" ]; then
				PROPTXT="fingerprint"
				TMPSTAGE=$PRINTSTAGE
				CHNGSTAGE="PRINTSTAGE"
			elif [ "$2" == "patch" ]; then
				PROPTXT="security patch date"
				TMPSTAGE=$PATCHSTAGE
				CHNGSTAGE="PATCHSTAGE"
			fi
			if [ "$TMPSTAGE" == 0 ]; then
				CURRTXT="default"
				TMPTXT="${C}post-fs-data${N} or ${C}late_start sevice${N}"
				CHOICETXT="${G}p${N}(ost), ${G}l${N}(ate)"
			elif [ "$TMPSTAGE" == 1 ]; then
				CURRTXT="post-fs-data"
				TMPTXT="${C}default${N} or ${C}late_start service${N}"
				CHOICETXT="${G}d${N}(efault), ${G}l${N}(ate)"
			elif [ "$TMPSTAGE" == 2 ]; then
				CURRTXT="late_start service"
				TMPTXT="${C}default${N} or ${C}post-fs-data${N}"
				CHOICETXT="${G}d${N}(efault), ${G}p${N}(post)"
			fi
			menu_header "${C}$1${N}"
			echo ""
			echo "Current boot stage for $PROPTXT is"
			echo -e "${G}$CURRTXT${N}."
			echo ""
			echo "Do you want to change it to"
			echo -e "$TMPTXT?"
			echo ""
			echo -en "Enter $CHOICETXT, ${G}b${N}(ack) or ${G}e${N}(xit): "
			read -r INPUT4
		fi
		case "$INPUT4" in
			d|D)
				if [ "$TMPSTAGE" != 0 ]; then
					before_change
					OPTNEW=0
					log_handler "Boot stage for $PROPTXT changed to default."
					replace_fn $CHNGSTAGE $TMPSTAGE $OPTNEW $LATEFILE
					# Load module values
					. $LATEFILE
					INPUT3=""
					after_change "$1"
					break
				else
					invalid_input 1 4
				fi
			;;
			p|P)
				if [ "$TMPSTAGE" != 1 ]; then
					before_change
					OPTNEW=1
					log_handler "Boot stage for $PROPTXT changed to post-fs-data."
					replace_fn $CHNGSTAGE $TMPSTAGE $OPTNEW $LATEFILE
					# Load module values
					. $LATEFILE
					INPUT3=""
					after_change "$1"
					break
				else
					invalid_input 1 4
				fi
			;;
			l|L)
				if [ "$TMPSTAGE" != 2 ]; then
					before_change
					OPTNEW=2
					log_handler "Boot stage for $PROPTXT changed to late_start service."
					replace_fn $CHNGSTAGE $TMPSTAGE $OPTNEW $LATEFILE
					# Load module values
					. $LATEFILE
					INPUT3=""
					after_change "$1"
					break
				else
					invalid_input 1 4
				fi
			;;
			b|B)
				INPUT3=""
				break
			;;
			e|E) exit_fn
			;;
			*)	invalid_input 1 4
			;;
		esac
	done
}

# ======================== Force BASIC key attestation ========================
# Second menu level - BASIC attestation, $1=header
menu_force_basic() {
	INPUT2=""
	while true
	do
		if [ "$BASICATTEST" == 0 ]; then
			fn_oem_file # Find the OEM print file used
			STATETXT="${G}enable${N}"
			if [ "$BASICATTMODEL" ]; then
				YTXT=", use default value (${C}$BASICATTMODEL${N})"
			else
				YTXT=", use default value (${C}$(getprop ro.product.device)${N})"
			fi
			YDTXT="Yes, p"
		else
			STATETXT="${R}disable${N}"
			YTXT=""
			YDTXT="P"
		fi
		if [ "$BASICATTCUST" ]; then
			CUSTTXT=" (${G}active${N})"
		else
			CUSTTXT=""
		fi
		if [ "$BASICATTLIST" ]; then
			LISTTXT=" (${G}active${N})"
		else
			LISTTXT=""
		fi
		if [ -z "$INPUT2" ]; then
			menu_header "${C}$1${N}"
			echo ""
			echo "Edit device model to change"
			echo "bootloader state check from"
			echo "hardware based to basic."
			echo ""
			echo -e "Do you want to $STATETXT"
			echo "forced BASIC key attestation?"
			echo ""
			echo "The currently loaded value is:"
			echo -e "${C}$(getprop ro.product.model)${N}"
			if [ "$BASICATTEST" == 1 ] && [ "$ORIGMODEL" != "$(getprop ro.product.model)" ]; then
				echo "(Set by this module.)"
			fi
			echo ""
			echo -e "${G}y${N} - Yes$YTXT"
			echo -e "${G}d${N} - ${YDTXT}ick value from device list$LISTTXT"
			echo -e "${G}c${N} - Set a custom value$CUSTTXT"
			echo -e "${G}n${N} - No"
			if [ "$BASICATTCUST" ] || [ "$BASICATTLIST" ]; then
				echo -e "${G}r${N} - Reset"
			fi
			echo -e "${G}e${N} - Exit"
			echo ""
			if [ "$BASICATTEST" == 0 ]; then
				echo "This may disable some device"
				echo "specific features, like the"
				echo "Samsung Galaxy Store. YMMV."
				echo ""
			fi
			echo "See the module readme or the"
			echo "support thread @ XDA for details."
			echo ""
			echo -n "Enter your desired option: "
			read -r INPUT2
		fi
		case "$INPUT2" in
			y|Y)
				forced_basic "$1"
				INPUT=""
			;;
			n|N)
				INPUT=""
				break
			;;
			d|D)
				forced_list_menu "$1"
				INPUT=""
			;;
			c|C)
				forced_custom_menu "$1"
				INPUT=""
			;;
			r|R)
				if [ "$BASICATTCUST" ] || [ "$BASICATTLIST" ]; then
					forced_reset_menu "$1"
					INPUT=""
					break
				else
					invalid_input 1 2
				fi
			;;
			e|E) exit_fn
			;;
			*) invalid_input 1 2
			;;
		esac
	done
}

# Third menu level - Pick from list, $1=header
forced_list_menu() {
	INPUT3=""
	OEMLIST=""
	HEADERPRINTV="${C}$1${N}\n List version - v$(get_file_value $PRINTSLOC "PRINTSV=")\n Select an option below."
	while true
	do
		if [ -z "$INPUT3" ]; then
			# Load the list of fingerprint files
			log_handler "Loading fingerprints list v$(get_file_value $PRINTSLOC "PRINTSV=")."
			OEMLIST="$(ls $PRINTFILES | sed 's|\.sh||g')"
			if [ "$OEMLIST" ]; then
				ITEMCOUNT=1
				menu_header "$HEADERPRINTV"
				echo ""
				for ITEM in $OEMLIST; do
					echo -e "${G}$ITEMCOUNT${N} - $ITEM"
					ITEMCOUNT=$(($ITEMCOUNT+1))
				done
				echo ""
				if [ "$BASICATTLIST" ]; then
					echo "The currently set list value is:"
					echo -e "${C}$BASICATTLIST${N}"
					echo ""
					echo -e "${G}r${N} - Reset list value"
				else
					echo "Currently the default/custom"
					echo "values are being used."
					echo ""
				fi
				echo -e "${G}b${N} - Go back"
				echo -e "${G}e${N} - Exit"
				echo ""
				echo "Do NOT use your actual device."
				echo "Pick a device as close to yours"
				echo "as you can, to possibly keep"
				echo "device specific features working."
				echo ""
				echo "See the module readme or the"
				echo "support thread @ XDA for details."
				echo ""
				echo -n "Enter your desired option: "
				read -r INPUT3
			else
				log_handler "No fingerprints list."
				collect_logs "issue"
				menu_header "${C}$1${N}\n Something's wrong!"
				echo "Hm... That's not right."
				echo ""
				echo "There is currently no fingerprints list"
				echo "available. Try updating it manually."
				echo ""
				echo "If the issue persists, report it in the"
				echo -e "support thread @ XDA, ${R}with logs!${C}"
				echo ""
				echo "Logs have automatically been saved to"
				echo -e "your internal storage ${R}(propslogs.tar.gz)${C}."
				echo ""
				echo -n "Press enter to continue..."
				read -r INPUTTMP
				INPUT2=""
				break
			fi
		fi
		case "$INPUT3" in
			r|R)
				if [ "$BASICATTLIST" ]; then
					forced_list_reset_menu "$1"
					INPUT2=""
					break
				else
					invalid_input 1 3
				fi
			;;
			b|B)
				INPUT2=""
				break
			;;
			e|E) exit_fn
			;;
			*)
				if [ "$INPUT3" -ge 1 -a "$INPUT3" -lt "$ITEMCOUNT" ]; then
					ITEMCOUNT=1
					for ITEM in $OEMLIST; do
						if [ "$ITEMCOUNT" == "$INPUT3" ]; then
							forced_list_pick_menu "$HEADERPRINTV" "$ITEM"
							break
						fi
						ITEMCOUNT=$(($ITEMCOUNT+1))
					done
				else
					invalid_input 1 3
				fi
			;;
		esac
	done
}

# Fourth menu level - reset list value, $1=header
forced_list_reset_menu() {
	INPUT4=""
	fn_oem_file # Find the OEM print file used
	while true
	do
		if [ -z "$INPUT4" ]; then
			menu_header "${C}$1${N}"
			echo ""
			echo "Are you sure you want to reset"
			echo "the list value for forced BASIC"
			echo "key attestation to the default"
			if [ "$BASICATTMODEL" ]; then
				echo -e "value (${C}$BASICATTMODEL${N})?"
			else
				echo -e "value (${C}$(getprop ro.product.device)${N})?"
			fi
			echo ""
			echo -e "${G}y${N} - Yes"
			echo -e "${G}n${N} - No"
			echo -e "${G}e${N} - Exit"
			echo ""
			echo "See the module readme or the"
			echo "support thread @ XDA for details."
			echo ""
			echo -en "Enter ${G}y${N}(es), ${G}n${N}(o) or ${G}e${N}(xit): "
			read -r INPUT4
		fi
		case "$INPUT4" in
			y|Y)
				forced_reset "$1" 1
				INPUT2=""
				INPUT3=""
				break
			;;
			n|N)
				INPUT3=""
				break
			;;
			e|E) exit_fn
			;;
			*) invalid_input 3 4
			;;
		esac
	done
}

# Fourth menu level - pick from list, $1=header, $2=OEM
forced_list_pick_menu() {
	# Loading fingerprints
	TMPFILE=$PRINTFILES/$2.sh
	if [ -f "$TMPFILE" ]; then
		. $TMPFILE
		INPUT4=""
	else
		menu_header "$1"
		log_handler "Can't find '$TMPFILE'."
		collect_logs "issue"
		echo "Oh no! Something went wrong..."
		echo ""
		echo "Can't find the fingerprints file."
		echo "Try updating it manually."
		echo ""
		echo "If the issue persists, report it in the"
		echo -e "support thread @ XDA, ${R}with logs!${C}"
		echo ""
		echo "Logs have automatically been saved to"
		echo -e "your internal storage ${R}(propslogs.tar.gz)${C}."
		echo ""
		echo -n "Press enter to continue..."
		read -r INPUTTMP
		INPUT4="b"
	fi
	while true
	do
		if [ -z "$INPUT4" ]; then
			ITEMCOUNT=1
			menu_header "$1"
			echo ""
			SAVEIFS=$IFS
			IFS=$(echo -en "\n\b")
			for ITEM in $PRINTSLIST; do
				if [ "$(get_first $ITEM)" == "$2" ]; then
					echo -e "${G}$ITEMCOUNT${N} - $(get_device "$ITEM" | sed "s| (.*)||")"
					ITEMCOUNT=$(($ITEMCOUNT+1))
				fi
			done
			IFS=$SAVEIFS
			echo -e "${G}b${N} - Go back"
			echo -e "${G}e${N} - Exit"
			echo ""
			echo -n "Enter your desired option: "
			read -r INPUT4
		fi
		case "$INPUT4" in
			b|B)
				INPUT3=""
				break
			;;
			e|E) exit_fn
			;;
			*)
				if [ "$INPUT4" -ge 1 -a "$INPUT4" -lt "$ITEMCOUNT" ]; then
					ITEMCOUNT=1
					SAVEIFS=$IFS
					IFS=$(echo -en "\n\b")
					for ITEM in $PRINTSLIST; do
						if [ "$ITEMCOUNT" == "$INPUT4" ]; then
							IFS=$SAVEIFS
							forced_list_confirm_menu "$1" "$(get_eq_left "$ITEM" | sed "s|^.*\:||")"
							INPUT2=""
							INPUT3=""
							break
						fi
						ITEMCOUNT=$(($ITEMCOUNT+1))
					done
					IFS=$SAVEIFS
				else
					invalid_input 1 4
				fi
			;;
		esac
	done
}

# Fifth menu level - confirm list value, $1=header, $2=device info
forced_list_confirm_menu() {
	INPUT5=""
	while true
	do
		if [ -z "$INPUT5" ]; then
			menu_header "${C}$1${N}"
			echo ""
			echo "Do you want to use the following"
			echo "as the value for the module props?"
			echo ""
			echo -e "${C}$2${N}"
			echo ""
			if [ "$BASICATTLIST" ]; then
				echo "The currently set list value is:"
				echo -e "${C}$BASICATTLIST${N}"
			else
				echo "Currently the default/custom"
				echo "values are being used."
			fi
			echo ""
			echo -e "${G}y${N} - Yes"
			echo -e "${G}n${N} - No"
			echo -e "${G}e${N} - Exit"
			echo ""
			echo "See the module readme or the"
			echo "support thread @ XDA for details."
			echo ""
			echo -en "Enter ${G}y${N}(es), ${G}n${N}(o) or ${G}e${N}(xit): "
			read -r INPUT5
		fi
		case "$INPUT5" in
			y|Y)
				forced_list_confirm "$1" "$2"
				INPUT2=""
				INPUT3=""
				INPUT4=""
				break
			;;
			n|N)
				INPUT4=""
				break
			;;
			e|E) exit_fn
			;;
			*) invalid_input 3 5
			;;
		esac
	done
}

# Third menu level - set custom value, $1=header
forced_custom_menu() {
	INPUT3=""
	while true
	do
		if [ -z "$INPUT3" ]; then
			menu_header "${C}$1${N}"
			echo ""
			echo "Enter the value you want the"
			echo "module props to have, or pick"
			echo "an option below."
			echo ""
			if [ "$BASICATTCUST" ]; then
				echo "The currently set custom value is:"
				echo -e "${C}$BASICATTCUST${N}"
				echo ""
				echo -e "${G}r${N} - Reset custom value"
			else
				echo "Currently the default/list"
				echo "values are being used."
				echo ""
			fi
			echo -e "${G}b${N} - Back"
			echo -e "${G}e${N} - Exit"
			echo ""
			echo "See the module readme or the"
			echo "support thread @ XDA for details."
			echo ""
			echo -n "Enter your desired option: "
			read -r INPUT3
		fi